version 2
run Net10Experiment-3-20170627-20:42:36-22788
attr configname Net10Experiment
attr datetime 20170627-20:42:36
attr experiment Net10Experiment
attr inifile omnetpp.ini
attr iterationvars "iaMean=180, cutThrough=true"
attr iterationvarsf iaMean=180,cutThrough=true-
attr measurement "iaMean=180, cutThrough=true"
attr network networks.Net10
attr processid 22788
attr repetition 0
attr replication #0
attr resultdir results
attr runnumber 3
attr seedset 3
itervar cutThrough true
itervar iaMean 180
param **.destAddresses "\"1\""
param **.app.sendIaTime "exponential(180 ms)"
param **.queue[*].useCutThroughSwitching true
param **.queue[*].frameCapacity 100
param **.appType "\"App\""
param **.app.packetLength "4096 bytes"

scalar Net10.rte[0].app hopCount:mean -nan
attr interpolationmode none
attr title "hop count of arrived packets, mean"
scalar Net10.rte[0].app hopCount:max -nan
attr interpolationmode none
attr title "hop count of arrived packets, max"
scalar Net10.rte[0].app endToEndDelay:mean -nan
attr interpolationmode none
attr title "end-to-end delay of arrived packets, mean"
attr unit s
scalar Net10.rte[0].app endToEndDelay:max -nan
attr interpolationmode none
attr title "end-to-end delay of arrived packets, max"
attr unit s
statistic Net10.rte[0].routing outputIf:histogram
field count 33455
field sum 0
field sqrsum 0
field min 0
field max 0
attr interpolationmode none
attr title "output interface for each routed packet, histogram"
bin	-inf	0
bin	-0.5	0
bin	-0.46666666666667	0
bin	-0.43333333333333	0
bin	-0.4	0
bin	-0.36666666666667	0
bin	-0.33333333333333	0
bin	-0.3	0
bin	-0.26666666666667	0
bin	-0.23333333333333	0
bin	-0.2	0
bin	-0.16666666666667	0
bin	-0.13333333333333	0
bin	-0.1	0
bin	-0.066666666666667	0
bin	-0.033333333333333	0
bin	0	33455
bin	0.033333333333333	0
bin	0.066666666666667	0
bin	0.1	0
bin	0.13333333333333	0
bin	0.16666666666667	0
bin	0.2	0
bin	0.23333333333333	0
bin	0.26666666666667	0
bin	0.3	0
bin	0.33333333333333	0
bin	0.36666666666667	0
bin	0.4	0
bin	0.43333333333333	0
bin	0.46666666666667	0
bin	0.5	0
scalar Net10.rte[0].routing drop:count 0
attr interpolationmode none
attr title "dropped packet byte length, count"
attr unit bytes
scalar Net10.rte[0].routing drop:sum 0
attr interpolationmode none
attr title "dropped packet byte length, sum"
attr unit bytes
scalar Net10.rte[0].queue[0] rxBytes:count 0
attr interpolationmode none
attr title "received packet byte length, count"
attr unit bytes
scalar Net10.rte[0].queue[0] rxBytes:sum 0
attr interpolationmode none
attr title "received packet byte length, sum"
attr unit bytes
statistic Net10.rte[0].queue[0] rxBytes:histogram
field count 0
field sum 0
field sqrsum 0
field min -nan
field max -nan
attr interpolationmode none
attr title "received packet byte length, histogram"
attr unit bytes
bin	-inf	0
bin	-0.5	0
bin	-0.46666666666667	0
bin	-0.43333333333333	0
bin	-0.4	0
bin	-0.36666666666667	0
bin	-0.33333333333333	0
bin	-0.3	0
bin	-0.26666666666667	0
bin	-0.23333333333333	0
bin	-0.2	0
bin	-0.16666666666667	0
bin	-0.13333333333333	0
bin	-0.1	0
bin	-0.066666666666667	0
bin	-0.033333333333333	0
bin	0	0
bin	0.033333333333333	0
bin	0.066666666666667	0
bin	0.1	0
bin	0.13333333333333	0
bin	0.16666666666667	0
bin	0.2	0
bin	0.23333333333333	0
bin	0.26666666666667	0
bin	0.3	0
bin	0.33333333333333	0
bin	0.36666666666667	0
bin	0.4	0
bin	0.43333333333333	0
bin	0.46666666666667	0
bin	0.5	0
scalar Net10.rte[0].queue[0] txBytes:count 33455
attr interpolationmode none
attr title "transmitting packet byte length, count"
attr unit bytes
scalar Net10.rte[0].queue[0] txBytes:sum 137031680
attr interpolationmode none
attr title "transmitting packet byte length, sum"
attr unit bytes
statistic Net10.rte[0].queue[0] txBytes:histogram
field count 33455
field sum 137031680
field sqrsum 561281761280
field min 4096
field max 4096
attr interpolationmode none
attr title "transmitting packet byte length, histogram"
attr unit bytes
bin	-inf	0
bin	4095	0
bin	4096	33455
bin	4097	0
scalar Net10.rte[0].queue[0] busy:timeavg 0.91354453333338
attr interpolationmode sample-hold
attr title "server busy state, timeavg"
scalar Net10.rte[0].queue[0] qlen:timeavg 3.5156114898496
attr interpolationmode sample-hold
attr title "queue length, timeavg"
scalar Net10.rte[0].queue[0] qlen:max 28
attr interpolationmode sample-hold
attr title "queue length, max"
scalar Net10.rte[0].queue[0] drop:count 0
attr interpolationmode none
attr title "dropped packet byte length, count"
attr unit bytes
scalar Net10.rte[0].queue[0] drop:sum 0
attr interpolationmode none
attr title "dropped packet byte length, sum"
attr unit bytes
scalar Net10.rte[0].queue[1] rxBytes:count 0
attr interpolationmode none
attr title "received packet byte length, count"
attr unit bytes
scalar Net10.rte[0].queue[1] rxBytes:sum 0
attr interpolationmode none
attr title "received packet byte length, sum"
attr unit bytes
statistic Net10.rte[0].queue[1] rxBytes:histogram
field count 0
field sum 0
field sqrsum 0
field min -nan
field max -nan
attr interpolationmode none
attr title "received packet byte length, histogram"
attr unit bytes
bin	-inf	0
bin	-0.5	0
bin	-0.46666666666667	0
bin	-0.43333333333333	0
bin	-0.4	0
bin	-0.36666666666667	0
bin	-0.33333333333333	0
bin	-0.3	0
bin	-0.26666666666667	0
bin	-0.23333333333333	0
bin	-0.2	0
bin	-0.16666666666667	0
bin	-0.13333333333333	0
bin	-0.1	0
bin	-0.066666666666667	0
bin	-0.033333333333333	0
bin	0	0
bin	0.033333333333333	0
bin	0.066666666666667	0
bin	0.1	0
bin	0.13333333333333	0
bin	0.16666666666667	0
bin	0.2	0
bin	0.23333333333333	0
bin	0.26666666666667	0
bin	0.3	0
bin	0.33333333333333	0
bin	0.36666666666667	0
bin	0.4	0
bin	0.43333333333333	0
bin	0.46666666666667	0
bin	0.5	0
scalar Net10.rte[0].queue[1] txBytes:count 0
attr interpolationmode none
attr title "transmitting packet byte length, count"
attr unit bytes
scalar Net10.rte[0].queue[1] txBytes:sum 0
attr interpolationmode none
attr title "transmitting packet byte length, sum"
attr unit bytes
statistic Net10.rte[0].queue[1] txBytes:histogram
field count 0
field sum 0
field sqrsum 0
field min -nan
field max -nan
attr interpolationmode none
attr title "transmitting packet byte length, histogram"
attr unit bytes
bin	-inf	0
bin	-0.5	0
bin	-0.46666666666667	0
bin	-0.43333333333333	0
bin	-0.4	0
bin	-0.36666666666667	0
bin	-0.33333333333333	0
bin	-0.3	0
bin	-0.26666666666667	0
bin	-0.23333333333333	0
bin	-0.2	0
bin	-0.16666666666667	0
bin	-0.13333333333333	0
bin	-0.1	0
bin	-0.066666666666667	0
bin	-0.033333333333333	0
bin	0	0
bin	0.033333333333333	0
bin	0.066666666666667	0
bin	0.1	0
bin	0.13333333333333	0
bin	0.16666666666667	0
bin	0.2	0
bin	0.23333333333333	0
bin	0.26666666666667	0
bin	0.3	0
bin	0.33333333333333	0
bin	0.36666666666667	0
bin	0.4	0
bin	0.43333333333333	0
bin	0.46666666666667	0
bin	0.5	0
scalar Net10.rte[0].queue[1] busy:timeavg 0
attr interpolationmode sample-hold
attr title "server busy state, timeavg"
scalar Net10.rte[0].queue[1] qlen:timeavg 0
attr interpolationmode sample-hold
attr title "queue length, timeavg"
scalar Net10.rte[0].queue[1] qlen:max 0
attr interpolationmode sample-hold
attr title "queue length, max"
scalar Net10.rte[0].queue[1] drop:count 0
attr interpolationmode none
attr title "dropped packet byte length, count"
attr unit bytes
scalar Net10.rte[0].queue[1] drop:sum 0
attr interpolationmode none
attr title "dropped packet byte length, sum"
attr unit bytes
scalar Net10.rte[0].queue[2] rxBytes:count 26813
attr interpolationmode none
attr title "received packet byte length, count"
attr unit bytes
scalar Net10.rte[0].queue[2] rxBytes:sum 109826048
attr interpolationmode none
attr title "received packet byte length, sum"
attr unit bytes
statistic Net10.rte[0].queue[2] rxBytes:histogram
field count 26813
field sum 109826048
field sqrsum 449847492608
field min 4096
field max 4096
attr interpolationmode none
attr title "received packet byte length, histogram"
attr unit bytes
bin	-inf	0
bin	4095	0
bin	4096	26813
bin	4097	0
scalar Net10.rte[0].queue[2] txBytes:count 0
attr interpolationmode none
attr title "transmitting packet byte length, count"
attr unit bytes
scalar Net10.rte[0].queue[2] txBytes:sum 0
attr interpolationmode none
attr title "transmitting packet byte length, sum"
attr unit bytes
statistic Net10.rte[0].queue[2] txBytes:histogram
field count 0
field sum 0
field sqrsum 0
field min -nan
field max -nan
attr interpolationmode none
attr title "transmitting packet byte length, histogram"
attr unit bytes
bin	-inf	0
bin	-0.5	0
bin	-0.46666666666667	0
bin	-0.43333333333333	0
bin	-0.4	0
bin	-0.36666666666667	0
bin	-0.33333333333333	0
bin	-0.3	0
bin	-0.26666666666667	0
bin	-0.23333333333333	0
bin	-0.2	0
bin	-0.16666666666667	0
bin	-0.13333333333333	0
bin	-0.1	0
bin	-0.066666666666667	0
bin	-0.033333333333333	0
bin	0	0
bin	0.033333333333333	0
bin	0.066666666666667	0
bin	0.1	0
bin	0.13333333333333	0
bin	0.16666666666667	0
bin	0.2	0
bin	0.23333333333333	0
bin	0.26666666666667	0
bin	0.3	0
bin	0.33333333333333	0
bin	0.36666666666667	0
bin	0.4	0
bin	0.43333333333333	0
bin	0.46666666666667	0
bin	0.5	0
scalar Net10.rte[0].queue[2] busy:timeavg 0
attr interpolationmode sample-hold
attr title "server busy state, timeavg"
scalar Net10.rte[0].queue[2] qlen:timeavg 0
attr interpolationmode sample-hold
attr title "queue length, timeavg"
scalar Net10.rte[0].queue[2] qlen:max 0
attr interpolationmode sample-hold
attr title "queue length, max"
scalar Net10.rte[0].queue[2] drop:count 0
attr interpolationmode none
attr title "dropped packet byte length, count"
attr unit bytes
scalar Net10.rte[0].queue[2] drop:sum 0
attr interpolationmode none
attr title "dropped packet byte length, sum"
attr unit bytes
scalar Net10.rte[1].app hopCount:mean 1.9966494652606
attr interpolationmode none
attr title "hop count of arrived packets, mean"
scalar Net10.rte[1].app hopCount:max 4
attr interpolationmode none
attr title "hop count of arrived packets, max"
scalar Net10.rte[1].app endToEndDelay:mean 0.08801415420837
attr interpolationmode none
attr title "end-to-end delay of arrived packets, mean"
attr unit s
scalar Net10.rte[1].app endToEndDelay:max 1.23228998906
attr interpolationmode none
attr title "end-to-end delay of arrived packets, max"
attr unit s
statistic Net10.rte[1].routing outputIf:histogram
field count 66855
field sum -66855
field sqrsum 66855
field min -1
field max -1
attr interpolationmode none
attr title "output interface for each routed packet, histogram"
bin	-inf	0
bin	-2	0
bin	-1	66855
bin	0	0
scalar Net10.rte[1].routing drop:count 0
attr interpolationmode none
attr title "dropped packet byte length, count"
attr unit bytes
scalar Net10.rte[1].routing drop:sum 0
attr interpolationmode none
attr title "dropped packet byte length, sum"
attr unit bytes
scalar Net10.rte[1].queue[0] rxBytes:count 33455
attr interpolationmode none
attr title "received packet byte length, count"
attr unit bytes
scalar Net10.rte[1].queue[0] rxBytes:sum 137031680
attr interpolationmode none
attr title "received packet byte length, sum"
attr unit bytes
statistic Net10.rte[1].queue[0] rxBytes:histogram
field count 33455
field sum 137031680
field sqrsum 561281761280
field min 4096
field max 4096
attr interpolationmode none
attr title "received packet byte length, histogram"
attr unit bytes
bin	-inf	0
bin	4095	0
bin	4096	33455
bin	4097	0
scalar Net10.rte[1].queue[0] txBytes:count 0
attr interpolationmode none
attr title "transmitting packet byte length, count"
attr unit bytes
scalar Net10.rte[1].queue[0] txBytes:sum 0
attr interpolationmode none
attr title "transmitting packet byte length, sum"
attr unit bytes
statistic Net10.rte[1].queue[0] txBytes:histogram
field count 0
field sum 0
field sqrsum 0
field min -nan
field max -nan
attr interpolationmode none
attr title "transmitting packet byte length, histogram"
attr unit bytes
bin	-inf	0
bin	-0.5	0
bin	-0.46666666666667	0
bin	-0.43333333333333	0
bin	-0.4	0
bin	-0.36666666666667	0
bin	-0.33333333333333	0
bin	-0.3	0
bin	-0.26666666666667	0
bin	-0.23333333333333	0
bin	-0.2	0
bin	-0.16666666666667	0
bin	-0.13333333333333	0
bin	-0.1	0
bin	-0.066666666666667	0
bin	-0.033333333333333	0
bin	0	0
bin	0.033333333333333	0
bin	0.066666666666667	0
bin	0.1	0
bin	0.13333333333333	0
bin	0.16666666666667	0
bin	0.2	0
bin	0.23333333333333	0
bin	0.26666666666667	0
bin	0.3	0
bin	0.33333333333333	0
bin	0.36666666666667	0
bin	0.4	0
bin	0.43333333333333	0
bin	0.46666666666667	0
bin	0.5	0
scalar Net10.rte[1].queue[0] busy:timeavg 0
attr interpolationmode sample-hold
attr title "server busy state, timeavg"
scalar Net10.rte[1].queue[0] qlen:timeavg 0
attr interpolationmode sample-hold
attr title "queue length, timeavg"
scalar Net10.rte[1].queue[0] qlen:max 0
attr interpolationmode sample-hold
attr title "queue length, max"
scalar Net10.rte[1].queue[0] drop:count 0
attr interpolationmode none
attr title "dropped packet byte length, count"
attr unit bytes
scalar Net10.rte[1].queue[0] drop:sum 0
attr interpolationmode none
attr title "dropped packet byte length, sum"
attr unit bytes
scalar Net10.rte[1].queue[1] rxBytes:count 6712
attr interpolationmode none
attr title "received packet byte length, count"
attr unit bytes
scalar Net10.rte[1].queue[1] rxBytes:sum 27492352
attr interpolationmode none
attr title "received packet byte length, sum"
attr unit bytes
statistic Net10.rte[1].queue[1] rxBytes:histogram
field count 6712
field sum 27492352
field sqrsum 112608673792
field min 4096
field max 4096
attr interpolationmode none
attr title "received packet byte length, histogram"
attr unit bytes
bin	-inf	0
bin	4095	0
bin	4096	6712
bin	4097	0
scalar Net10.rte[1].queue[1] txBytes:count 0
attr interpolationmode none
attr title "transmitting packet byte length, count"
attr unit bytes
scalar Net10.rte[1].queue[1] txBytes:sum 0
attr interpolationmode none
attr title "transmitting packet byte length, sum"
attr unit bytes
statistic Net10.rte[1].queue[1] txBytes:histogram
field count 0
field sum 0
field sqrsum 0
field min -nan
field max -nan
attr interpolationmode none
attr title "transmitting packet byte length, histogram"
attr unit bytes
bin	-inf	0
bin	-0.5	0
bin	-0.46666666666667	0
bin	-0.43333333333333	0
bin	-0.4	0
bin	-0.36666666666667	0
bin	-0.33333333333333	0
bin	-0.3	0
bin	-0.26666666666667	0
bin	-0.23333333333333	0
bin	-0.2	0
bin	-0.16666666666667	0
bin	-0.13333333333333	0
bin	-0.1	0
bin	-0.066666666666667	0
bin	-0.033333333333333	0
bin	0	0
bin	0.033333333333333	0
bin	0.066666666666667	0
bin	0.1	0
bin	0.13333333333333	0
bin	0.16666666666667	0
bin	0.2	0
bin	0.23333333333333	0
bin	0.26666666666667	0
bin	0.3	0
bin	0.33333333333333	0
bin	0.36666666666667	0
bin	0.4	0
bin	0.43333333333333	0
bin	0.46666666666667	0
bin	0.5	0
scalar Net10.rte[1].queue[1] busy:timeavg 0
attr interpolationmode sample-hold
attr title "server busy state, timeavg"
scalar Net10.rte[1].queue[1] qlen:timeavg 0
attr interpolationmode sample-hold
attr title "queue length, timeavg"
scalar Net10.rte[1].queue[1] qlen:max 0
attr interpolationmode sample-hold
attr title "queue length, max"
scalar Net10.rte[1].queue[1] drop:count 0
attr interpolationmode none
attr title "dropped packet byte length, count"
attr unit bytes
scalar Net10.rte[1].queue[1] drop:sum 0
attr interpolationmode none
attr title "dropped packet byte length, sum"
attr unit bytes
scalar Net10.rte[1].queue[2] rxBytes:count 19923
attr interpolationmode none
attr title "received packet byte length, count"
attr unit bytes
scalar Net10.rte[1].queue[2] rxBytes:sum 81604608
attr interpolationmode none
attr title "received packet byte length, sum"
attr unit bytes
statistic Net10.rte[1].queue[2] rxBytes:histogram
field count 19923
field sum 81604608
field sqrsum 334252474368
field min 4096
field max 4096
attr interpolationmode none
attr title "received packet byte length, histogram"
attr unit bytes
bin	-inf	0
bin	4095	0
bin	4096	19923
bin	4097	0
scalar Net10.rte[1].queue[2] txBytes:count 0
attr interpolationmode none
attr title "transmitting packet byte length, count"
attr unit bytes
scalar Net10.rte[1].queue[2] txBytes:sum 0
attr interpolationmode none
attr title "transmitting packet byte length, sum"
attr unit bytes
statistic Net10.rte[1].queue[2] txBytes:histogram
field count 0
field sum 0
field sqrsum 0
field min -nan
field max -nan
attr interpolationmode none
attr title "transmitting packet byte length, histogram"
attr unit bytes
bin	-inf	0
bin	-0.5	0
bin	-0.46666666666667	0
bin	-0.43333333333333	0
bin	-0.4	0
bin	-0.36666666666667	0
bin	-0.33333333333333	0
bin	-0.3	0
bin	-0.26666666666667	0
bin	-0.23333333333333	0
bin	-0.2	0
bin	-0.16666666666667	0
bin	-0.13333333333333	0
bin	-0.1	0
bin	-0.066666666666667	0
bin	-0.033333333333333	0
bin	0	0
bin	0.033333333333333	0
bin	0.066666666666667	0
bin	0.1	0
bin	0.13333333333333	0
bin	0.16666666666667	0
bin	0.2	0
bin	0.23333333333333	0
bin	0.26666666666667	0
bin	0.3	0
bin	0.33333333333333	0
bin	0.36666666666667	0
bin	0.4	0
bin	0.43333333333333	0
bin	0.46666666666667	0
bin	0.5	0
scalar Net10.rte[1].queue[2] busy:timeavg 0
attr interpolationmode sample-hold
attr title "server busy state, timeavg"
scalar Net10.rte[1].queue[2] qlen:timeavg 0
attr interpolationmode sample-hold
attr title "queue length, timeavg"
scalar Net10.rte[1].queue[2] qlen:max 0
attr interpolationmode sample-hold
attr title "queue length, max"
scalar Net10.rte[1].queue[2] drop:count 0
attr interpolationmode none
attr title "dropped packet byte length, count"
attr unit bytes
scalar Net10.rte[1].queue[2] drop:sum 0
attr interpolationmode none
attr title "dropped packet byte length, sum"
attr unit bytes
scalar Net10.rte[2].app hopCount:mean -nan
attr interpolationmode none
attr title "hop count of arrived packets, mean"
scalar Net10.rte[2].app hopCount:max -nan
attr interpolationmode none
attr title "hop count of arrived packets, max"
scalar Net10.rte[2].app endToEndDelay:mean -nan
attr interpolationmode none
attr title "end-to-end delay of arrived packets, mean"
attr unit s
scalar Net10.rte[2].app endToEndDelay:max -nan
attr interpolationmode none
attr title "end-to-end delay of arrived packets, max"
attr unit s
statistic Net10.rte[2].routing outputIf:histogram
field count 19923
field sum 79692
field sqrsum 318768
field min 4
field max 4
attr interpolationmode none
attr title "output interface for each routed packet, histogram"
bin	-inf	0
bin	3	0
bin	4	19923
bin	5	0
scalar Net10.rte[2].routing drop:count 0
attr interpolationmode none
attr title "dropped packet byte length, count"
attr unit bytes
scalar Net10.rte[2].routing drop:sum 0
attr interpolationmode none
attr title "dropped packet byte length, sum"
attr unit bytes
scalar Net10.rte[2].queue[0] rxBytes:count 0
attr interpolationmode none
attr title "received packet byte length, count"
attr unit bytes
scalar Net10.rte[2].queue[0] rxBytes:sum 0
attr interpolationmode none
attr title "received packet byte length, sum"
attr unit bytes
statistic Net10.rte[2].queue[0] rxBytes:histogram
field count 0
field sum 0
field sqrsum 0
field min -nan
field max -nan
attr interpolationmode none
attr title "received packet byte length, histogram"
attr unit bytes
bin	-inf	0
bin	-0.5	0
bin	-0.46666666666667	0
bin	-0.43333333333333	0
bin	-0.4	0
bin	-0.36666666666667	0
bin	-0.33333333333333	0
bin	-0.3	0
bin	-0.26666666666667	0
bin	-0.23333333333333	0
bin	-0.2	0
bin	-0.16666666666667	0
bin	-0.13333333333333	0
bin	-0.1	0
bin	-0.066666666666667	0
bin	-0.033333333333333	0
bin	0	0
bin	0.033333333333333	0
bin	0.066666666666667	0
bin	0.1	0
bin	0.13333333333333	0
bin	0.16666666666667	0
bin	0.2	0
bin	0.23333333333333	0
bin	0.26666666666667	0
bin	0.3	0
bin	0.33333333333333	0
bin	0.36666666666667	0
bin	0.4	0
bin	0.43333333333333	0
bin	0.46666666666667	0
bin	0.5	0
scalar Net10.rte[2].queue[0] txBytes:count 0
attr interpolationmode none
attr title "transmitting packet byte length, count"
attr unit bytes
scalar Net10.rte[2].queue[0] txBytes:sum 0
attr interpolationmode none
attr title "transmitting packet byte length, sum"
attr unit bytes
statistic Net10.rte[2].queue[0] txBytes:histogram
field count 0
field sum 0
field sqrsum 0
field min -nan
field max -nan
attr interpolationmode none
attr title "transmitting packet byte length, histogram"
attr unit bytes
bin	-inf	0
bin	-0.5	0
bin	-0.46666666666667	0
bin	-0.43333333333333	0
bin	-0.4	0
bin	-0.36666666666667	0
bin	-0.33333333333333	0
bin	-0.3	0
bin	-0.26666666666667	0
bin	-0.23333333333333	0
bin	-0.2	0
bin	-0.16666666666667	0
bin	-0.13333333333333	0
bin	-0.1	0
bin	-0.066666666666667	0
bin	-0.033333333333333	0
bin	0	0
bin	0.033333333333333	0
bin	0.066666666666667	0
bin	0.1	0
bin	0.13333333333333	0
bin	0.16666666666667	0
bin	0.2	0
bin	0.23333333333333	0
bin	0.26666666666667	0
bin	0.3	0
bin	0.33333333333333	0
bin	0.36666666666667	0
bin	0.4	0
bin	0.43333333333333	0
bin	0.46666666666667	0
bin	0.5	0
scalar Net10.rte[2].queue[0] busy:timeavg 0
attr interpolationmode sample-hold
attr title "server busy state, timeavg"
scalar Net10.rte[2].queue[0] qlen:timeavg 0
attr interpolationmode sample-hold
attr title "queue length, timeavg"
scalar Net10.rte[2].queue[0] qlen:max 0
attr interpolationmode sample-hold
attr title "queue length, max"
scalar Net10.rte[2].queue[0] drop:count 0
attr interpolationmode none
attr title "dropped packet byte length, count"
attr unit bytes
scalar Net10.rte[2].queue[0] drop:sum 0
attr interpolationmode none
attr title "dropped packet byte length, sum"
attr unit bytes
scalar Net10.rte[2].queue[1] rxBytes:count 0
attr interpolationmode none
attr title "received packet byte length, count"
attr unit bytes
scalar Net10.rte[2].queue[1] rxBytes:sum 0
attr interpolationmode none
attr title "received packet byte length, sum"
attr unit bytes
statistic Net10.rte[2].queue[1] rxBytes:histogram
field count 0
field sum 0
field sqrsum 0
field min -nan
field max -nan
attr interpolationmode none
attr title "received packet byte length, histogram"
attr unit bytes
bin	-inf	0
bin	-0.5	0
bin	-0.46666666666667	0
bin	-0.43333333333333	0
bin	-0.4	0
bin	-0.36666666666667	0
bin	-0.33333333333333	0
bin	-0.3	0
bin	-0.26666666666667	0
bin	-0.23333333333333	0
bin	-0.2	0
bin	-0.16666666666667	0
bin	-0.13333333333333	0
bin	-0.1	0
bin	-0.066666666666667	0
bin	-0.033333333333333	0
bin	0	0
bin	0.033333333333333	0
bin	0.066666666666667	0
bin	0.1	0
bin	0.13333333333333	0
bin	0.16666666666667	0
bin	0.2	0
bin	0.23333333333333	0
bin	0.26666666666667	0
bin	0.3	0
bin	0.33333333333333	0
bin	0.36666666666667	0
bin	0.4	0
bin	0.43333333333333	0
bin	0.46666666666667	0
bin	0.5	0
scalar Net10.rte[2].queue[1] txBytes:count 0
attr interpolationmode none
attr title "transmitting packet byte length, count"
attr unit bytes
scalar Net10.rte[2].queue[1] txBytes:sum 0
attr interpolationmode none
attr title "transmitting packet byte length, sum"
attr unit bytes
statistic Net10.rte[2].queue[1] txBytes:histogram
field count 0
field sum 0
field sqrsum 0
field min -nan
field max -nan
attr interpolationmode none
attr title "transmitting packet byte length, histogram"
attr unit bytes
bin	-inf	0
bin	-0.5	0
bin	-0.46666666666667	0
bin	-0.43333333333333	0
bin	-0.4	0
bin	-0.36666666666667	0
bin	-0.33333333333333	0
bin	-0.3	0
bin	-0.26666666666667	0
bin	-0.23333333333333	0
bin	-0.2	0
bin	-0.16666666666667	0
bin	-0.13333333333333	0
bin	-0.1	0
bin	-0.066666666666667	0
bin	-0.033333333333333	0
bin	0	0
bin	0.033333333333333	0
bin	0.066666666666667	0
bin	0.1	0
bin	0.13333333333333	0
bin	0.16666666666667	0
bin	0.2	0
bin	0.23333333333333	0
bin	0.26666666666667	0
bin	0.3	0
bin	0.33333333333333	0
bin	0.36666666666667	0
bin	0.4	0
bin	0.43333333333333	0
bin	0.46666666666667	0
bin	0.5	0
scalar Net10.rte[2].queue[1] busy:timeavg 0
attr interpolationmode sample-hold
attr title "server busy state, timeavg"
scalar Net10.rte[2].queue[1] qlen:timeavg 0
attr interpolationmode sample-hold
attr title "queue length, timeavg"
scalar Net10.rte[2].queue[1] qlen:max 0
attr interpolationmode sample-hold
attr title "queue length, max"
scalar Net10.rte[2].queue[1] drop:count 0
attr interpolationmode none
attr title "dropped packet byte length, count"
attr unit bytes
scalar Net10.rte[2].queue[1] drop:sum 0
attr interpolationmode none
attr title "dropped packet byte length, sum"
attr unit bytes
scalar Net10.rte[2].queue[2] rxBytes:count 0
attr interpolationmode none
attr title "received packet byte length, count"
attr unit bytes
scalar Net10.rte[2].queue[2] rxBytes:sum 0
attr interpolationmode none
attr title "received packet byte length, sum"
attr unit bytes
statistic Net10.rte[2].queue[2] rxBytes:histogram
field count 0
field sum 0
field sqrsum 0
field min -nan
field max -nan
attr interpolationmode none
attr title "received packet byte length, histogram"
attr unit bytes
bin	-inf	0
bin	-0.5	0
bin	-0.46666666666667	0
bin	-0.43333333333333	0
bin	-0.4	0
bin	-0.36666666666667	0
bin	-0.33333333333333	0
bin	-0.3	0
bin	-0.26666666666667	0
bin	-0.23333333333333	0
bin	-0.2	0
bin	-0.16666666666667	0
bin	-0.13333333333333	0
bin	-0.1	0
bin	-0.066666666666667	0
bin	-0.033333333333333	0
bin	0	0
bin	0.033333333333333	0
bin	0.066666666666667	0
bin	0.1	0
bin	0.13333333333333	0
bin	0.16666666666667	0
bin	0.2	0
bin	0.23333333333333	0
bin	0.26666666666667	0
bin	0.3	0
bin	0.33333333333333	0
bin	0.36666666666667	0
bin	0.4	0
bin	0.43333333333333	0
bin	0.46666666666667	0
bin	0.5	0
scalar Net10.rte[2].queue[2] txBytes:count 0
attr interpolationmode none
attr title "transmitting packet byte length, count"
attr unit bytes
scalar Net10.rte[2].queue[2] txBytes:sum 0
attr interpolationmode none
attr title "transmitting packet byte length, sum"
attr unit bytes
statistic Net10.rte[2].queue[2] txBytes:histogram
field count 0
field sum 0
field sqrsum 0
field min -nan
field max -nan
attr interpolationmode none
attr title "transmitting packet byte length, histogram"
attr unit bytes
bin	-inf	0
bin	-0.5	0
bin	-0.46666666666667	0
bin	-0.43333333333333	0
bin	-0.4	0
bin	-0.36666666666667	0
bin	-0.33333333333333	0
bin	-0.3	0
bin	-0.26666666666667	0
bin	-0.23333333333333	0
bin	-0.2	0
bin	-0.16666666666667	0
bin	-0.13333333333333	0
bin	-0.1	0
bin	-0.066666666666667	0
bin	-0.033333333333333	0
bin	0	0
bin	0.033333333333333	0
bin	0.066666666666667	0
bin	0.1	0
bin	0.13333333333333	0
bin	0.16666666666667	0
bin	0.2	0
bin	0.23333333333333	0
bin	0.26666666666667	0
bin	0.3	0
bin	0.33333333333333	0
bin	0.36666666666667	0
bin	0.4	0
bin	0.43333333333333	0
bin	0.46666666666667	0
bin	0.5	0
scalar Net10.rte[2].queue[2] busy:timeavg 0
attr interpolationmode sample-hold
attr title "server busy state, timeavg"
scalar Net10.rte[2].queue[2] qlen:timeavg 0
attr interpolationmode sample-hold
attr title "queue length, timeavg"
scalar Net10.rte[2].queue[2] qlen:max 0
attr interpolationmode sample-hold
attr title "queue length, max"
scalar Net10.rte[2].queue[2] drop:count 0
attr interpolationmode none
attr title "dropped packet byte length, count"
attr unit bytes
scalar Net10.rte[2].queue[2] drop:sum 0
attr interpolationmode none
attr title "dropped packet byte length, sum"
attr unit bytes
scalar Net10.rte[2].queue[3] rxBytes:count 13291
attr interpolationmode none
attr title "received packet byte length, count"
attr unit bytes
scalar Net10.rte[2].queue[3] rxBytes:sum 54439936
attr interpolationmode none
attr title "received packet byte length, sum"
attr unit bytes
statistic Net10.rte[2].queue[3] rxBytes:histogram
field count 13291
field sum 54439936
field sqrsum 222985977856
field min 4096
field max 4096
attr interpolationmode none
attr title "received packet byte length, histogram"
attr unit bytes
bin	-inf	0
bin	4095	0
bin	4096	13291
bin	4097	0
scalar Net10.rte[2].queue[3] txBytes:count 0
attr interpolationmode none
attr title "transmitting packet byte length, count"
attr unit bytes
scalar Net10.rte[2].queue[3] txBytes:sum 0
attr interpolationmode none
attr title "transmitting packet byte length, sum"
attr unit bytes
statistic Net10.rte[2].queue[3] txBytes:histogram
field count 0
field sum 0
field sqrsum 0
field min -nan
field max -nan
attr interpolationmode none
attr title "transmitting packet byte length, histogram"
attr unit bytes
bin	-inf	0
bin	-0.5	0
bin	-0.46666666666667	0
bin	-0.43333333333333	0
bin	-0.4	0
bin	-0.36666666666667	0
bin	-0.33333333333333	0
bin	-0.3	0
bin	-0.26666666666667	0
bin	-0.23333333333333	0
bin	-0.2	0
bin	-0.16666666666667	0
bin	-0.13333333333333	0
bin	-0.1	0
bin	-0.066666666666667	0
bin	-0.033333333333333	0
bin	0	0
bin	0.033333333333333	0
bin	0.066666666666667	0
bin	0.1	0
bin	0.13333333333333	0
bin	0.16666666666667	0
bin	0.2	0
bin	0.23333333333333	0
bin	0.26666666666667	0
bin	0.3	0
bin	0.33333333333333	0
bin	0.36666666666667	0
bin	0.4	0
bin	0.43333333333333	0
bin	0.46666666666667	0
bin	0.5	0
scalar Net10.rte[2].queue[3] busy:timeavg 0
attr interpolationmode sample-hold
attr title "server busy state, timeavg"
scalar Net10.rte[2].queue[3] qlen:timeavg 0
attr interpolationmode sample-hold
attr title "queue length, timeavg"
scalar Net10.rte[2].queue[3] qlen:max 0
attr interpolationmode sample-hold
attr title "queue length, max"
scalar Net10.rte[2].queue[3] drop:count 0
attr interpolationmode none
attr title "dropped packet byte length, count"
attr unit bytes
scalar Net10.rte[2].queue[3] drop:sum 0
attr interpolationmode none
attr title "dropped packet byte length, sum"
attr unit bytes
scalar Net10.rte[2].queue[4] rxBytes:count 0
attr interpolationmode none
attr title "received packet byte length, count"
attr unit bytes
scalar Net10.rte[2].queue[4] rxBytes:sum 0
attr interpolationmode none
attr title "received packet byte length, sum"
attr unit bytes
statistic Net10.rte[2].queue[4] rxBytes:histogram
field count 0
field sum 0
field sqrsum 0
field min -nan
field max -nan
attr interpolationmode none
attr title "received packet byte length, histogram"
attr unit bytes
bin	-inf	0
bin	-0.5	0
bin	-0.46666666666667	0
bin	-0.43333333333333	0
bin	-0.4	0
bin	-0.36666666666667	0
bin	-0.33333333333333	0
bin	-0.3	0
bin	-0.26666666666667	0
bin	-0.23333333333333	0
bin	-0.2	0
bin	-0.16666666666667	0
bin	-0.13333333333333	0
bin	-0.1	0
bin	-0.066666666666667	0
bin	-0.033333333333333	0
bin	0	0
bin	0.033333333333333	0
bin	0.066666666666667	0
bin	0.1	0
bin	0.13333333333333	0
bin	0.16666666666667	0
bin	0.2	0
bin	0.23333333333333	0
bin	0.26666666666667	0
bin	0.3	0
bin	0.33333333333333	0
bin	0.36666666666667	0
bin	0.4	0
bin	0.43333333333333	0
bin	0.46666666666667	0
bin	0.5	0
scalar Net10.rte[2].queue[4] txBytes:count 19923
attr interpolationmode none
attr title "transmitting packet byte length, count"
attr unit bytes
scalar Net10.rte[2].queue[4] txBytes:sum 81604608
attr interpolationmode none
attr title "transmitting packet byte length, sum"
attr unit bytes
statistic Net10.rte[2].queue[4] txBytes:histogram
field count 19923
field sum 81604608
field sqrsum 334252474368
field min 4096
field max 4096
attr interpolationmode none
attr title "transmitting packet byte length, histogram"
attr unit bytes
bin	-inf	0
bin	4095	0
bin	4096	19923
bin	4097	0
scalar Net10.rte[2].queue[4] busy:timeavg 0.54401368144296
attr interpolationmode sample-hold
attr title "server busy state, timeavg"
scalar Net10.rte[2].queue[4] qlen:timeavg 0.2148775603903
attr interpolationmode sample-hold
attr title "queue length, timeavg"
scalar Net10.rte[2].queue[4] qlen:max 7
attr interpolationmode sample-hold
attr title "queue length, max"
scalar Net10.rte[2].queue[4] drop:count 0
attr interpolationmode none
attr title "dropped packet byte length, count"
attr unit bytes
scalar Net10.rte[2].queue[4] drop:sum 0
attr interpolationmode none
attr title "dropped packet byte length, sum"
attr unit bytes
scalar Net10.rte[3].app hopCount:mean -nan
attr interpolationmode none
attr title "hop count of arrived packets, mean"
scalar Net10.rte[3].app hopCount:max -nan
attr interpolationmode none
attr title "hop count of arrived packets, max"
scalar Net10.rte[3].app endToEndDelay:mean -nan
attr interpolationmode none
attr title "end-to-end delay of arrived packets, mean"
attr unit s
scalar Net10.rte[3].app endToEndDelay:max -nan
attr interpolationmode none
attr title "end-to-end delay of arrived packets, max"
attr unit s
statistic Net10.rte[3].routing outputIf:histogram
field count 6712
field sum 6712
field sqrsum 6712
field min 1
field max 1
attr interpolationmode none
attr title "output interface for each routed packet, histogram"
bin	-inf	0
bin	0	0
bin	1	6712
bin	2	0
scalar Net10.rte[3].routing drop:count 0
attr interpolationmode none
attr title "dropped packet byte length, count"
attr unit bytes
scalar Net10.rte[3].routing drop:sum 0
attr interpolationmode none
attr title "dropped packet byte length, sum"
attr unit bytes
scalar Net10.rte[3].queue[0] rxBytes:count 0
attr interpolationmode none
attr title "received packet byte length, count"
attr unit bytes
scalar Net10.rte[3].queue[0] rxBytes:sum 0
attr interpolationmode none
attr title "received packet byte length, sum"
attr unit bytes
statistic Net10.rte[3].queue[0] rxBytes:histogram
field count 0
field sum 0
field sqrsum 0
field min -nan
field max -nan
attr interpolationmode none
attr title "received packet byte length, histogram"
attr unit bytes
bin	-inf	0
bin	-0.5	0
bin	-0.46666666666667	0
bin	-0.43333333333333	0
bin	-0.4	0
bin	-0.36666666666667	0
bin	-0.33333333333333	0
bin	-0.3	0
bin	-0.26666666666667	0
bin	-0.23333333333333	0
bin	-0.2	0
bin	-0.16666666666667	0
bin	-0.13333333333333	0
bin	-0.1	0
bin	-0.066666666666667	0
bin	-0.033333333333333	0
bin	0	0
bin	0.033333333333333	0
bin	0.066666666666667	0
bin	0.1	0
bin	0.13333333333333	0
bin	0.16666666666667	0
bin	0.2	0
bin	0.23333333333333	0
bin	0.26666666666667	0
bin	0.3	0
bin	0.33333333333333	0
bin	0.36666666666667	0
bin	0.4	0
bin	0.43333333333333	0
bin	0.46666666666667	0
bin	0.5	0
scalar Net10.rte[3].queue[0] txBytes:count 0
attr interpolationmode none
attr title "transmitting packet byte length, count"
attr unit bytes
scalar Net10.rte[3].queue[0] txBytes:sum 0
attr interpolationmode none
attr title "transmitting packet byte length, sum"
attr unit bytes
statistic Net10.rte[3].queue[0] txBytes:histogram
field count 0
field sum 0
field sqrsum 0
field min -nan
field max -nan
attr interpolationmode none
attr title "transmitting packet byte length, histogram"
attr unit bytes
bin	-inf	0
bin	-0.5	0
bin	-0.46666666666667	0
bin	-0.43333333333333	0
bin	-0.4	0
bin	-0.36666666666667	0
bin	-0.33333333333333	0
bin	-0.3	0
bin	-0.26666666666667	0
bin	-0.23333333333333	0
bin	-0.2	0
bin	-0.16666666666667	0
bin	-0.13333333333333	0
bin	-0.1	0
bin	-0.066666666666667	0
bin	-0.033333333333333	0
bin	0	0
bin	0.033333333333333	0
bin	0.066666666666667	0
bin	0.1	0
bin	0.13333333333333	0
bin	0.16666666666667	0
bin	0.2	0
bin	0.23333333333333	0
bin	0.26666666666667	0
bin	0.3	0
bin	0.33333333333333	0
bin	0.36666666666667	0
bin	0.4	0
bin	0.43333333333333	0
bin	0.46666666666667	0
bin	0.5	0
scalar Net10.rte[3].queue[0] busy:timeavg 0
attr interpolationmode sample-hold
attr title "server busy state, timeavg"
scalar Net10.rte[3].queue[0] qlen:timeavg 0
attr interpolationmode sample-hold
attr title "queue length, timeavg"
scalar Net10.rte[3].queue[0] qlen:max 0
attr interpolationmode sample-hold
attr title "queue length, max"
scalar Net10.rte[3].queue[0] drop:count 0
attr interpolationmode none
attr title "dropped packet byte length, count"
attr unit bytes
scalar Net10.rte[3].queue[0] drop:sum 0
attr interpolationmode none
attr title "dropped packet byte length, sum"
attr unit bytes
scalar Net10.rte[3].queue[1] rxBytes:count 0
attr interpolationmode none
attr title "received packet byte length, count"
attr unit bytes
scalar Net10.rte[3].queue[1] rxBytes:sum 0
attr interpolationmode none
attr title "received packet byte length, sum"
attr unit bytes
statistic Net10.rte[3].queue[1] rxBytes:histogram
field count 0
field sum 0
field sqrsum 0
field min -nan
field max -nan
attr interpolationmode none
attr title "received packet byte length, histogram"
attr unit bytes
bin	-inf	0
bin	-0.5	0
bin	-0.46666666666667	0
bin	-0.43333333333333	0
bin	-0.4	0
bin	-0.36666666666667	0
bin	-0.33333333333333	0
bin	-0.3	0
bin	-0.26666666666667	0
bin	-0.23333333333333	0
bin	-0.2	0
bin	-0.16666666666667	0
bin	-0.13333333333333	0
bin	-0.1	0
bin	-0.066666666666667	0
bin	-0.033333333333333	0
bin	0	0
bin	0.033333333333333	0
bin	0.066666666666667	0
bin	0.1	0
bin	0.13333333333333	0
bin	0.16666666666667	0
bin	0.2	0
bin	0.23333333333333	0
bin	0.26666666666667	0
bin	0.3	0
bin	0.33333333333333	0
bin	0.36666666666667	0
bin	0.4	0
bin	0.43333333333333	0
bin	0.46666666666667	0
bin	0.5	0
scalar Net10.rte[3].queue[1] txBytes:count 6712
attr interpolationmode none
attr title "transmitting packet byte length, count"
attr unit bytes
scalar Net10.rte[3].queue[1] txBytes:sum 27492352
attr interpolationmode none
attr title "transmitting packet byte length, sum"
attr unit bytes
statistic Net10.rte[3].queue[1] txBytes:histogram
field count 6712
field sum 27492352
field sqrsum 112608673792
field min 4096
field max 4096
attr interpolationmode none
attr title "transmitting packet byte length, histogram"
attr unit bytes
bin	-inf	0
bin	4095	0
bin	4096	6712
bin	4097	0
scalar Net10.rte[3].queue[1] busy:timeavg 0.18328126869566
attr interpolationmode sample-hold
attr title "server busy state, timeavg"
scalar Net10.rte[3].queue[1] qlen:timeavg 0.021665916563113
attr interpolationmode sample-hold
attr title "queue length, timeavg"
scalar Net10.rte[3].queue[1] qlen:max 3
attr interpolationmode sample-hold
attr title "queue length, max"
scalar Net10.rte[3].queue[1] drop:count 0
attr interpolationmode none
attr title "dropped packet byte length, count"
attr unit bytes
scalar Net10.rte[3].queue[1] drop:sum 0
attr interpolationmode none
attr title "dropped packet byte length, sum"
attr unit bytes
scalar Net10.rte[3].queue[2] rxBytes:count 0
attr interpolationmode none
attr title "received packet byte length, count"
attr unit bytes
scalar Net10.rte[3].queue[2] rxBytes:sum 0
attr interpolationmode none
attr title "received packet byte length, sum"
attr unit bytes
statistic Net10.rte[3].queue[2] rxBytes:histogram
field count 0
field sum 0
field sqrsum 0
field min -nan
field max -nan
attr interpolationmode none
attr title "received packet byte length, histogram"
attr unit bytes
bin	-inf	0
bin	-0.5	0
bin	-0.46666666666667	0
bin	-0.43333333333333	0
bin	-0.4	0
bin	-0.36666666666667	0
bin	-0.33333333333333	0
bin	-0.3	0
bin	-0.26666666666667	0
bin	-0.23333333333333	0
bin	-0.2	0
bin	-0.16666666666667	0
bin	-0.13333333333333	0
bin	-0.1	0
bin	-0.066666666666667	0
bin	-0.033333333333333	0
bin	0	0
bin	0.033333333333333	0
bin	0.066666666666667	0
bin	0.1	0
bin	0.13333333333333	0
bin	0.16666666666667	0
bin	0.2	0
bin	0.23333333333333	0
bin	0.26666666666667	0
bin	0.3	0
bin	0.33333333333333	0
bin	0.36666666666667	0
bin	0.4	0
bin	0.43333333333333	0
bin	0.46666666666667	0
bin	0.5	0
scalar Net10.rte[3].queue[2] txBytes:count 0
attr interpolationmode none
attr title "transmitting packet byte length, count"
attr unit bytes
scalar Net10.rte[3].queue[2] txBytes:sum 0
attr interpolationmode none
attr title "transmitting packet byte length, sum"
attr unit bytes
statistic Net10.rte[3].queue[2] txBytes:histogram
field count 0
field sum 0
field sqrsum 0
field min -nan
field max -nan
attr interpolationmode none
attr title "transmitting packet byte length, histogram"
attr unit bytes
bin	-inf	0
bin	-0.5	0
bin	-0.46666666666667	0
bin	-0.43333333333333	0
bin	-0.4	0
bin	-0.36666666666667	0
bin	-0.33333333333333	0
bin	-0.3	0
bin	-0.26666666666667	0
bin	-0.23333333333333	0
bin	-0.2	0
bin	-0.16666666666667	0
bin	-0.13333333333333	0
bin	-0.1	0
bin	-0.066666666666667	0
bin	-0.033333333333333	0
bin	0	0
bin	0.033333333333333	0
bin	0.066666666666667	0
bin	0.1	0
bin	0.13333333333333	0
bin	0.16666666666667	0
bin	0.2	0
bin	0.23333333333333	0
bin	0.26666666666667	0
bin	0.3	0
bin	0.33333333333333	0
bin	0.36666666666667	0
bin	0.4	0
bin	0.43333333333333	0
bin	0.46666666666667	0
bin	0.5	0
scalar Net10.rte[3].queue[2] busy:timeavg 0
attr interpolationmode sample-hold
attr title "server busy state, timeavg"
scalar Net10.rte[3].queue[2] qlen:timeavg 0
attr interpolationmode sample-hold
attr title "queue length, timeavg"
scalar Net10.rte[3].queue[2] qlen:max 0
attr interpolationmode sample-hold
attr title "queue length, max"
scalar Net10.rte[3].queue[2] drop:count 0
attr interpolationmode none
attr title "dropped packet byte length, count"
attr unit bytes
scalar Net10.rte[3].queue[2] drop:sum 0
attr interpolationmode none
attr title "dropped packet byte length, sum"
attr unit bytes
scalar Net10.rte[4].app hopCount:mean -nan
attr interpolationmode none
attr title "hop count of arrived packets, mean"
scalar Net10.rte[4].app hopCount:max -nan
attr interpolationmode none
attr title "hop count of arrived packets, max"
scalar Net10.rte[4].app endToEndDelay:mean -nan
attr interpolationmode none
attr title "end-to-end delay of arrived packets, mean"
attr unit s
scalar Net10.rte[4].app endToEndDelay:max -nan
attr interpolationmode none
attr title "end-to-end delay of arrived packets, max"
attr unit s
statistic Net10.rte[4].routing outputIf:histogram
field count 13292
field sum 26584
field sqrsum 53168
field min 2
field max 2
attr interpolationmode none
attr title "output interface for each routed packet, histogram"
bin	-inf	0
bin	1	0
bin	2	13292
bin	3	0
scalar Net10.rte[4].routing drop:count 0
attr interpolationmode none
attr title "dropped packet byte length, count"
attr unit bytes
scalar Net10.rte[4].routing drop:sum 0
attr interpolationmode none
attr title "dropped packet byte length, sum"
attr unit bytes
scalar Net10.rte[4].queue[0] rxBytes:count 6613
attr interpolationmode none
attr title "received packet byte length, count"
attr unit bytes
scalar Net10.rte[4].queue[0] rxBytes:sum 27086848
attr interpolationmode none
attr title "received packet byte length, sum"
attr unit bytes
statistic Net10.rte[4].queue[0] rxBytes:histogram
field count 6613
field sum 27086848
field sqrsum 110947729408
field min 4096
field max 4096
attr interpolationmode none
attr title "received packet byte length, histogram"
attr unit bytes
bin	-inf	0
bin	4095	0
bin	4096	6613
bin	4097	0
scalar Net10.rte[4].queue[0] txBytes:count 0
attr interpolationmode none
attr title "transmitting packet byte length, count"
attr unit bytes
scalar Net10.rte[4].queue[0] txBytes:sum 0
attr interpolationmode none
attr title "transmitting packet byte length, sum"
attr unit bytes
statistic Net10.rte[4].queue[0] txBytes:histogram
field count 0
field sum 0
field sqrsum 0
field min -nan
field max -nan
attr interpolationmode none
attr title "transmitting packet byte length, histogram"
attr unit bytes
bin	-inf	0
bin	-0.5	0
bin	-0.46666666666667	0
bin	-0.43333333333333	0
bin	-0.4	0
bin	-0.36666666666667	0
bin	-0.33333333333333	0
bin	-0.3	0
bin	-0.26666666666667	0
bin	-0.23333333333333	0
bin	-0.2	0
bin	-0.16666666666667	0
bin	-0.13333333333333	0
bin	-0.1	0
bin	-0.066666666666667	0
bin	-0.033333333333333	0
bin	0	0
bin	0.033333333333333	0
bin	0.066666666666667	0
bin	0.1	0
bin	0.13333333333333	0
bin	0.16666666666667	0
bin	0.2	0
bin	0.23333333333333	0
bin	0.26666666666667	0
bin	0.3	0
bin	0.33333333333333	0
bin	0.36666666666667	0
bin	0.4	0
bin	0.43333333333333	0
bin	0.46666666666667	0
bin	0.5	0
scalar Net10.rte[4].queue[0] busy:timeavg 0
attr interpolationmode sample-hold
attr title "server busy state, timeavg"
scalar Net10.rte[4].queue[0] qlen:timeavg 0
attr interpolationmode sample-hold
attr title "queue length, timeavg"
scalar Net10.rte[4].queue[0] qlen:max 0
attr interpolationmode sample-hold
attr title "queue length, max"
scalar Net10.rte[4].queue[0] drop:count 0
attr interpolationmode none
attr title "dropped packet byte length, count"
attr unit bytes
scalar Net10.rte[4].queue[0] drop:sum 0
attr interpolationmode none
attr title "dropped packet byte length, sum"
attr unit bytes
scalar Net10.rte[4].queue[1] rxBytes:count 0
attr interpolationmode none
attr title "received packet byte length, count"
attr unit bytes
scalar Net10.rte[4].queue[1] rxBytes:sum 0
attr interpolationmode none
attr title "received packet byte length, sum"
attr unit bytes
statistic Net10.rte[4].queue[1] rxBytes:histogram
field count 0
field sum 0
field sqrsum 0
field min -nan
field max -nan
attr interpolationmode none
attr title "received packet byte length, histogram"
attr unit bytes
bin	-inf	0
bin	-0.5	0
bin	-0.46666666666667	0
bin	-0.43333333333333	0
bin	-0.4	0
bin	-0.36666666666667	0
bin	-0.33333333333333	0
bin	-0.3	0
bin	-0.26666666666667	0
bin	-0.23333333333333	0
bin	-0.2	0
bin	-0.16666666666667	0
bin	-0.13333333333333	0
bin	-0.1	0
bin	-0.066666666666667	0
bin	-0.033333333333333	0
bin	0	0
bin	0.033333333333333	0
bin	0.066666666666667	0
bin	0.1	0
bin	0.13333333333333	0
bin	0.16666666666667	0
bin	0.2	0
bin	0.23333333333333	0
bin	0.26666666666667	0
bin	0.3	0
bin	0.33333333333333	0
bin	0.36666666666667	0
bin	0.4	0
bin	0.43333333333333	0
bin	0.46666666666667	0
bin	0.5	0
scalar Net10.rte[4].queue[1] txBytes:count 0
attr interpolationmode none
attr title "transmitting packet byte length, count"
attr unit bytes
scalar Net10.rte[4].queue[1] txBytes:sum 0
attr interpolationmode none
attr title "transmitting packet byte length, sum"
attr unit bytes
statistic Net10.rte[4].queue[1] txBytes:histogram
field count 0
field sum 0
field sqrsum 0
field min -nan
field max -nan
attr interpolationmode none
attr title "transmitting packet byte length, histogram"
attr unit bytes
bin	-inf	0
bin	-0.5	0
bin	-0.46666666666667	0
bin	-0.43333333333333	0
bin	-0.4	0
bin	-0.36666666666667	0
bin	-0.33333333333333	0
bin	-0.3	0
bin	-0.26666666666667	0
bin	-0.23333333333333	0
bin	-0.2	0
bin	-0.16666666666667	0
bin	-0.13333333333333	0
bin	-0.1	0
bin	-0.066666666666667	0
bin	-0.033333333333333	0
bin	0	0
bin	0.033333333333333	0
bin	0.066666666666667	0
bin	0.1	0
bin	0.13333333333333	0
bin	0.16666666666667	0
bin	0.2	0
bin	0.23333333333333	0
bin	0.26666666666667	0
bin	0.3	0
bin	0.33333333333333	0
bin	0.36666666666667	0
bin	0.4	0
bin	0.43333333333333	0
bin	0.46666666666667	0
bin	0.5	0
scalar Net10.rte[4].queue[1] busy:timeavg 0
attr interpolationmode sample-hold
attr title "server busy state, timeavg"
scalar Net10.rte[4].queue[1] qlen:timeavg 0
attr interpolationmode sample-hold
attr title "queue length, timeavg"
scalar Net10.rte[4].queue[1] qlen:max 0
attr interpolationmode sample-hold
attr title "queue length, max"
scalar Net10.rte[4].queue[1] drop:count 0
attr interpolationmode none
attr title "dropped packet byte length, count"
attr unit bytes
scalar Net10.rte[4].queue[1] drop:sum 0
attr interpolationmode none
attr title "dropped packet byte length, sum"
attr unit bytes
scalar Net10.rte[4].queue[2] rxBytes:count 0
attr interpolationmode none
attr title "received packet byte length, count"
attr unit bytes
scalar Net10.rte[4].queue[2] rxBytes:sum 0
attr interpolationmode none
attr title "received packet byte length, sum"
attr unit bytes
statistic Net10.rte[4].queue[2] rxBytes:histogram
field count 0
field sum 0
field sqrsum 0
field min -nan
field max -nan
attr interpolationmode none
attr title "received packet byte length, histogram"
attr unit bytes
bin	-inf	0
bin	-0.5	0
bin	-0.46666666666667	0
bin	-0.43333333333333	0
bin	-0.4	0
bin	-0.36666666666667	0
bin	-0.33333333333333	0
bin	-0.3	0
bin	-0.26666666666667	0
bin	-0.23333333333333	0
bin	-0.2	0
bin	-0.16666666666667	0
bin	-0.13333333333333	0
bin	-0.1	0
bin	-0.066666666666667	0
bin	-0.033333333333333	0
bin	0	0
bin	0.033333333333333	0
bin	0.066666666666667	0
bin	0.1	0
bin	0.13333333333333	0
bin	0.16666666666667	0
bin	0.2	0
bin	0.23333333333333	0
bin	0.26666666666667	0
bin	0.3	0
bin	0.33333333333333	0
bin	0.36666666666667	0
bin	0.4	0
bin	0.43333333333333	0
bin	0.46666666666667	0
bin	0.5	0
scalar Net10.rte[4].queue[2] txBytes:count 13291
attr interpolationmode none
attr title "transmitting packet byte length, count"
attr unit bytes
scalar Net10.rte[4].queue[2] txBytes:sum 54439936
attr interpolationmode none
attr title "transmitting packet byte length, sum"
attr unit bytes
statistic Net10.rte[4].queue[2] txBytes:histogram
field count 13291
field sum 54439936
field sqrsum 222985977856
field min 4096
field max 4096
attr interpolationmode none
attr title "transmitting packet byte length, histogram"
attr unit bytes
bin	-inf	0
bin	4095	0
bin	4096	13291
bin	4097	0
scalar Net10.rte[4].queue[2] busy:timeavg 0.36291606047054
attr interpolationmode sample-hold
attr title "server busy state, timeavg"
scalar Net10.rte[4].queue[2] qlen:timeavg 0.083876420262561
attr interpolationmode sample-hold
attr title "queue length, timeavg"
scalar Net10.rte[4].queue[2] qlen:max 5
attr interpolationmode sample-hold
attr title "queue length, max"
scalar Net10.rte[4].queue[2] drop:count 0
attr interpolationmode none
attr title "dropped packet byte length, count"
attr unit bytes
scalar Net10.rte[4].queue[2] drop:sum 0
attr interpolationmode none
attr title "dropped packet byte length, sum"
attr unit bytes
scalar Net10.rte[4].queue[3] rxBytes:count 0
attr interpolationmode none
attr title "received packet byte length, count"
attr unit bytes
scalar Net10.rte[4].queue[3] rxBytes:sum 0
attr interpolationmode none
attr title "received packet byte length, sum"
attr unit bytes
statistic Net10.rte[4].queue[3] rxBytes:histogram
field count 0
field sum 0
field sqrsum 0
field min -nan
field max -nan
attr interpolationmode none
attr title "received packet byte length, histogram"
attr unit bytes
bin	-inf	0
bin	-0.5	0
bin	-0.46666666666667	0
bin	-0.43333333333333	0
bin	-0.4	0
bin	-0.36666666666667	0
bin	-0.33333333333333	0
bin	-0.3	0
bin	-0.26666666666667	0
bin	-0.23333333333333	0
bin	-0.2	0
bin	-0.16666666666667	0
bin	-0.13333333333333	0
bin	-0.1	0
bin	-0.066666666666667	0
bin	-0.033333333333333	0
bin	0	0
bin	0.033333333333333	0
bin	0.066666666666667	0
bin	0.1	0
bin	0.13333333333333	0
bin	0.16666666666667	0
bin	0.2	0
bin	0.23333333333333	0
bin	0.26666666666667	0
bin	0.3	0
bin	0.33333333333333	0
bin	0.36666666666667	0
bin	0.4	0
bin	0.43333333333333	0
bin	0.46666666666667	0
bin	0.5	0
scalar Net10.rte[4].queue[3] txBytes:count 0
attr interpolationmode none
attr title "transmitting packet byte length, count"
attr unit bytes
scalar Net10.rte[4].queue[3] txBytes:sum 0
attr interpolationmode none
attr title "transmitting packet byte length, sum"
attr unit bytes
statistic Net10.rte[4].queue[3] txBytes:histogram
field count 0
field sum 0
field sqrsum 0
field min -nan
field max -nan
attr interpolationmode none
attr title "transmitting packet byte length, histogram"
attr unit bytes
bin	-inf	0
bin	-0.5	0
bin	-0.46666666666667	0
bin	-0.43333333333333	0
bin	-0.4	0
bin	-0.36666666666667	0
bin	-0.33333333333333	0
bin	-0.3	0
bin	-0.26666666666667	0
bin	-0.23333333333333	0
bin	-0.2	0
bin	-0.16666666666667	0
bin	-0.13333333333333	0
bin	-0.1	0
bin	-0.066666666666667	0
bin	-0.033333333333333	0
bin	0	0
bin	0.033333333333333	0
bin	0.066666666666667	0
bin	0.1	0
bin	0.13333333333333	0
bin	0.16666666666667	0
bin	0.2	0
bin	0.23333333333333	0
bin	0.26666666666667	0
bin	0.3	0
bin	0.33333333333333	0
bin	0.36666666666667	0
bin	0.4	0
bin	0.43333333333333	0
bin	0.46666666666667	0
bin	0.5	0
scalar Net10.rte[4].queue[3] busy:timeavg 0
attr interpolationmode sample-hold
attr title "server busy state, timeavg"
scalar Net10.rte[4].queue[3] qlen:timeavg 0
attr interpolationmode sample-hold
attr title "queue length, timeavg"
scalar Net10.rte[4].queue[3] qlen:max 0
attr interpolationmode sample-hold
attr title "queue length, max"
scalar Net10.rte[4].queue[3] drop:count 0
attr interpolationmode none
attr title "dropped packet byte length, count"
attr unit bytes
scalar Net10.rte[4].queue[3] drop:sum 0
attr interpolationmode none
attr title "dropped packet byte length, sum"
attr unit bytes
scalar Net10.rte[5].app hopCount:mean -nan
attr interpolationmode none
attr title "hop count of arrived packets, mean"
scalar Net10.rte[5].app hopCount:max -nan
attr interpolationmode none
attr title "hop count of arrived packets, max"
scalar Net10.rte[5].app endToEndDelay:mean -nan
attr interpolationmode none
attr title "end-to-end delay of arrived packets, mean"
attr unit s
scalar Net10.rte[5].app endToEndDelay:max -nan
attr interpolationmode none
attr title "end-to-end delay of arrived packets, max"
attr unit s
statistic Net10.rte[5].routing outputIf:histogram
field count 26813
field sum 80439
field sqrsum 241317
field min 3
field max 3
attr interpolationmode none
attr title "output interface for each routed packet, histogram"
bin	-inf	0
bin	2	0
bin	3	26813
bin	4	0
scalar Net10.rte[5].routing drop:count 0
attr interpolationmode none
attr title "dropped packet byte length, count"
attr unit bytes
scalar Net10.rte[5].routing drop:sum 0
attr interpolationmode none
attr title "dropped packet byte length, sum"
attr unit bytes
scalar Net10.rte[5].queue[0] rxBytes:count 0
attr interpolationmode none
attr title "received packet byte length, count"
attr unit bytes
scalar Net10.rte[5].queue[0] rxBytes:sum 0
attr interpolationmode none
attr title "received packet byte length, sum"
attr unit bytes
statistic Net10.rte[5].queue[0] rxBytes:histogram
field count 0
field sum 0
field sqrsum 0
field min -nan
field max -nan
attr interpolationmode none
attr title "received packet byte length, histogram"
attr unit bytes
bin	-inf	0
bin	-0.5	0
bin	-0.46666666666667	0
bin	-0.43333333333333	0
bin	-0.4	0
bin	-0.36666666666667	0
bin	-0.33333333333333	0
bin	-0.3	0
bin	-0.26666666666667	0
bin	-0.23333333333333	0
bin	-0.2	0
bin	-0.16666666666667	0
bin	-0.13333333333333	0
bin	-0.1	0
bin	-0.066666666666667	0
bin	-0.033333333333333	0
bin	0	0
bin	0.033333333333333	0
bin	0.066666666666667	0
bin	0.1	0
bin	0.13333333333333	0
bin	0.16666666666667	0
bin	0.2	0
bin	0.23333333333333	0
bin	0.26666666666667	0
bin	0.3	0
bin	0.33333333333333	0
bin	0.36666666666667	0
bin	0.4	0
bin	0.43333333333333	0
bin	0.46666666666667	0
bin	0.5	0
scalar Net10.rte[5].queue[0] txBytes:count 0
attr interpolationmode none
attr title "transmitting packet byte length, count"
attr unit bytes
scalar Net10.rte[5].queue[0] txBytes:sum 0
attr interpolationmode none
attr title "transmitting packet byte length, sum"
attr unit bytes
statistic Net10.rte[5].queue[0] txBytes:histogram
field count 0
field sum 0
field sqrsum 0
field min -nan
field max -nan
attr interpolationmode none
attr title "transmitting packet byte length, histogram"
attr unit bytes
bin	-inf	0
bin	-0.5	0
bin	-0.46666666666667	0
bin	-0.43333333333333	0
bin	-0.4	0
bin	-0.36666666666667	0
bin	-0.33333333333333	0
bin	-0.3	0
bin	-0.26666666666667	0
bin	-0.23333333333333	0
bin	-0.2	0
bin	-0.16666666666667	0
bin	-0.13333333333333	0
bin	-0.1	0
bin	-0.066666666666667	0
bin	-0.033333333333333	0
bin	0	0
bin	0.033333333333333	0
bin	0.066666666666667	0
bin	0.1	0
bin	0.13333333333333	0
bin	0.16666666666667	0
bin	0.2	0
bin	0.23333333333333	0
bin	0.26666666666667	0
bin	0.3	0
bin	0.33333333333333	0
bin	0.36666666666667	0
bin	0.4	0
bin	0.43333333333333	0
bin	0.46666666666667	0
bin	0.5	0
scalar Net10.rte[5].queue[0] busy:timeavg 0
attr interpolationmode sample-hold
attr title "server busy state, timeavg"
scalar Net10.rte[5].queue[0] qlen:timeavg 0
attr interpolationmode sample-hold
attr title "queue length, timeavg"
scalar Net10.rte[5].queue[0] qlen:max 0
attr interpolationmode sample-hold
attr title "queue length, max"
scalar Net10.rte[5].queue[0] drop:count 0
attr interpolationmode none
attr title "dropped packet byte length, count"
attr unit bytes
scalar Net10.rte[5].queue[0] drop:sum 0
attr interpolationmode none
attr title "dropped packet byte length, sum"
attr unit bytes
scalar Net10.rte[5].queue[1] rxBytes:count 6800
attr interpolationmode none
attr title "received packet byte length, count"
attr unit bytes
scalar Net10.rte[5].queue[1] rxBytes:sum 27852800
attr interpolationmode none
attr title "received packet byte length, sum"
attr unit bytes
statistic Net10.rte[5].queue[1] rxBytes:histogram
field count 6800
field sum 27852800
field sqrsum 114085068800
field min 4096
field max 4096
attr interpolationmode none
attr title "received packet byte length, histogram"
attr unit bytes
bin	-inf	0
bin	4095	0
bin	4096	6800
bin	4097	0
scalar Net10.rte[5].queue[1] txBytes:count 0
attr interpolationmode none
attr title "transmitting packet byte length, count"
attr unit bytes
scalar Net10.rte[5].queue[1] txBytes:sum 0
attr interpolationmode none
attr title "transmitting packet byte length, sum"
attr unit bytes
statistic Net10.rte[5].queue[1] txBytes:histogram
field count 0
field sum 0
field sqrsum 0
field min -nan
field max -nan
attr interpolationmode none
attr title "transmitting packet byte length, histogram"
attr unit bytes
bin	-inf	0
bin	-0.5	0
bin	-0.46666666666667	0
bin	-0.43333333333333	0
bin	-0.4	0
bin	-0.36666666666667	0
bin	-0.33333333333333	0
bin	-0.3	0
bin	-0.26666666666667	0
bin	-0.23333333333333	0
bin	-0.2	0
bin	-0.16666666666667	0
bin	-0.13333333333333	0
bin	-0.1	0
bin	-0.066666666666667	0
bin	-0.033333333333333	0
bin	0	0
bin	0.033333333333333	0
bin	0.066666666666667	0
bin	0.1	0
bin	0.13333333333333	0
bin	0.16666666666667	0
bin	0.2	0
bin	0.23333333333333	0
bin	0.26666666666667	0
bin	0.3	0
bin	0.33333333333333	0
bin	0.36666666666667	0
bin	0.4	0
bin	0.43333333333333	0
bin	0.46666666666667	0
bin	0.5	0
scalar Net10.rte[5].queue[1] busy:timeavg 0
attr interpolationmode sample-hold
attr title "server busy state, timeavg"
scalar Net10.rte[5].queue[1] qlen:timeavg 0
attr interpolationmode sample-hold
attr title "queue length, timeavg"
scalar Net10.rte[5].queue[1] qlen:max 0
attr interpolationmode sample-hold
attr title "queue length, max"
scalar Net10.rte[5].queue[1] drop:count 0
attr interpolationmode none
attr title "dropped packet byte length, count"
attr unit bytes
scalar Net10.rte[5].queue[1] drop:sum 0
attr interpolationmode none
attr title "dropped packet byte length, sum"
attr unit bytes
scalar Net10.rte[5].queue[2] rxBytes:count 13261
attr interpolationmode none
attr title "received packet byte length, count"
attr unit bytes
scalar Net10.rte[5].queue[2] rxBytes:sum 54317056
attr interpolationmode none
attr title "received packet byte length, sum"
attr unit bytes
statistic Net10.rte[5].queue[2] rxBytes:histogram
field count 13261
field sum 54317056
field sqrsum 222482661376
field min 4096
field max 4096
attr interpolationmode none
attr title "received packet byte length, histogram"
attr unit bytes
bin	-inf	0
bin	4095	0
bin	4096	13261
bin	4097	0
scalar Net10.rte[5].queue[2] txBytes:count 0
attr interpolationmode none
attr title "transmitting packet byte length, count"
attr unit bytes
scalar Net10.rte[5].queue[2] txBytes:sum 0
attr interpolationmode none
attr title "transmitting packet byte length, sum"
attr unit bytes
statistic Net10.rte[5].queue[2] txBytes:histogram
field count 0
field sum 0
field sqrsum 0
field min -nan
field max -nan
attr interpolationmode none
attr title "transmitting packet byte length, histogram"
attr unit bytes
bin	-inf	0
bin	-0.5	0
bin	-0.46666666666667	0
bin	-0.43333333333333	0
bin	-0.4	0
bin	-0.36666666666667	0
bin	-0.33333333333333	0
bin	-0.3	0
bin	-0.26666666666667	0
bin	-0.23333333333333	0
bin	-0.2	0
bin	-0.16666666666667	0
bin	-0.13333333333333	0
bin	-0.1	0
bin	-0.066666666666667	0
bin	-0.033333333333333	0
bin	0	0
bin	0.033333333333333	0
bin	0.066666666666667	0
bin	0.1	0
bin	0.13333333333333	0
bin	0.16666666666667	0
bin	0.2	0
bin	0.23333333333333	0
bin	0.26666666666667	0
bin	0.3	0
bin	0.33333333333333	0
bin	0.36666666666667	0
bin	0.4	0
bin	0.43333333333333	0
bin	0.46666666666667	0
bin	0.5	0
scalar Net10.rte[5].queue[2] busy:timeavg 0
attr interpolationmode sample-hold
attr title "server busy state, timeavg"
scalar Net10.rte[5].queue[2] qlen:timeavg 0
attr interpolationmode sample-hold
attr title "queue length, timeavg"
scalar Net10.rte[5].queue[2] qlen:max 0
attr interpolationmode sample-hold
attr title "queue length, max"
scalar Net10.rte[5].queue[2] drop:count 0
attr interpolationmode none
attr title "dropped packet byte length, count"
attr unit bytes
scalar Net10.rte[5].queue[2] drop:sum 0
attr interpolationmode none
attr title "dropped packet byte length, sum"
attr unit bytes
scalar Net10.rte[5].queue[3] rxBytes:count 0
attr interpolationmode none
attr title "received packet byte length, count"
attr unit bytes
scalar Net10.rte[5].queue[3] rxBytes:sum 0
attr interpolationmode none
attr title "received packet byte length, sum"
attr unit bytes
statistic Net10.rte[5].queue[3] rxBytes:histogram
field count 0
field sum 0
field sqrsum 0
field min -nan
field max -nan
attr interpolationmode none
attr title "received packet byte length, histogram"
attr unit bytes
bin	-inf	0
bin	-0.5	0
bin	-0.46666666666667	0
bin	-0.43333333333333	0
bin	-0.4	0
bin	-0.36666666666667	0
bin	-0.33333333333333	0
bin	-0.3	0
bin	-0.26666666666667	0
bin	-0.23333333333333	0
bin	-0.2	0
bin	-0.16666666666667	0
bin	-0.13333333333333	0
bin	-0.1	0
bin	-0.066666666666667	0
bin	-0.033333333333333	0
bin	0	0
bin	0.033333333333333	0
bin	0.066666666666667	0
bin	0.1	0
bin	0.13333333333333	0
bin	0.16666666666667	0
bin	0.2	0
bin	0.23333333333333	0
bin	0.26666666666667	0
bin	0.3	0
bin	0.33333333333333	0
bin	0.36666666666667	0
bin	0.4	0
bin	0.43333333333333	0
bin	0.46666666666667	0
bin	0.5	0
scalar Net10.rte[5].queue[3] txBytes:count 26813
attr interpolationmode none
attr title "transmitting packet byte length, count"
attr unit bytes
scalar Net10.rte[5].queue[3] txBytes:sum 109826048
attr interpolationmode none
attr title "transmitting packet byte length, sum"
attr unit bytes
statistic Net10.rte[5].queue[3] txBytes:histogram
field count 26813
field sum 109826048
field sqrsum 449847492608
field min 4096
field max 4096
attr interpolationmode none
attr title "transmitting packet byte length, histogram"
attr unit bytes
bin	-inf	0
bin	4095	0
bin	4096	26813
bin	4097	0
scalar Net10.rte[5].queue[3] busy:timeavg 0.73217365333335
attr interpolationmode sample-hold
attr title "server busy state, timeavg"
scalar Net10.rte[5].queue[3] qlen:timeavg 0.86104587349503
attr interpolationmode sample-hold
attr title "queue length, timeavg"
scalar Net10.rte[5].queue[3] qlen:max 11
attr interpolationmode sample-hold
attr title "queue length, max"
scalar Net10.rte[5].queue[3] drop:count 0
attr interpolationmode none
attr title "dropped packet byte length, count"
attr unit bytes
scalar Net10.rte[5].queue[3] drop:sum 0
attr interpolationmode none
attr title "dropped packet byte length, sum"
attr unit bytes
scalar Net10.rte[6].app hopCount:mean -nan
attr interpolationmode none
attr title "hop count of arrived packets, mean"
scalar Net10.rte[6].app hopCount:max -nan
attr interpolationmode none
attr title "hop count of arrived packets, max"
scalar Net10.rte[6].app endToEndDelay:mean -nan
attr interpolationmode none
attr title "end-to-end delay of arrived packets, mean"
attr unit s
scalar Net10.rte[6].app endToEndDelay:max -nan
attr interpolationmode none
attr title "end-to-end delay of arrived packets, max"
attr unit s
statistic Net10.rte[6].routing outputIf:histogram
field count 13261
field sum 53044
field sqrsum 212176
field min 4
field max 4
attr interpolationmode none
attr title "output interface for each routed packet, histogram"
bin	-inf	0
bin	3	0
bin	4	13261
bin	5	0
scalar Net10.rte[6].routing drop:count 0
attr interpolationmode none
attr title "dropped packet byte length, count"
attr unit bytes
scalar Net10.rte[6].routing drop:sum 0
attr interpolationmode none
attr title "dropped packet byte length, sum"
attr unit bytes
scalar Net10.rte[6].queue[0] rxBytes:count 0
attr interpolationmode none
attr title "received packet byte length, count"
attr unit bytes
scalar Net10.rte[6].queue[0] rxBytes:sum 0
attr interpolationmode none
attr title "received packet byte length, sum"
attr unit bytes
statistic Net10.rte[6].queue[0] rxBytes:histogram
field count 0
field sum 0
field sqrsum 0
field min -nan
field max -nan
attr interpolationmode none
attr title "received packet byte length, histogram"
attr unit bytes
bin	-inf	0
bin	-0.5	0
bin	-0.46666666666667	0
bin	-0.43333333333333	0
bin	-0.4	0
bin	-0.36666666666667	0
bin	-0.33333333333333	0
bin	-0.3	0
bin	-0.26666666666667	0
bin	-0.23333333333333	0
bin	-0.2	0
bin	-0.16666666666667	0
bin	-0.13333333333333	0
bin	-0.1	0
bin	-0.066666666666667	0
bin	-0.033333333333333	0
bin	0	0
bin	0.033333333333333	0
bin	0.066666666666667	0
bin	0.1	0
bin	0.13333333333333	0
bin	0.16666666666667	0
bin	0.2	0
bin	0.23333333333333	0
bin	0.26666666666667	0
bin	0.3	0
bin	0.33333333333333	0
bin	0.36666666666667	0
bin	0.4	0
bin	0.43333333333333	0
bin	0.46666666666667	0
bin	0.5	0
scalar Net10.rte[6].queue[0] txBytes:count 0
attr interpolationmode none
attr title "transmitting packet byte length, count"
attr unit bytes
scalar Net10.rte[6].queue[0] txBytes:sum 0
attr interpolationmode none
attr title "transmitting packet byte length, sum"
attr unit bytes
statistic Net10.rte[6].queue[0] txBytes:histogram
field count 0
field sum 0
field sqrsum 0
field min -nan
field max -nan
attr interpolationmode none
attr title "transmitting packet byte length, histogram"
attr unit bytes
bin	-inf	0
bin	-0.5	0
bin	-0.46666666666667	0
bin	-0.43333333333333	0
bin	-0.4	0
bin	-0.36666666666667	0
bin	-0.33333333333333	0
bin	-0.3	0
bin	-0.26666666666667	0
bin	-0.23333333333333	0
bin	-0.2	0
bin	-0.16666666666667	0
bin	-0.13333333333333	0
bin	-0.1	0
bin	-0.066666666666667	0
bin	-0.033333333333333	0
bin	0	0
bin	0.033333333333333	0
bin	0.066666666666667	0
bin	0.1	0
bin	0.13333333333333	0
bin	0.16666666666667	0
bin	0.2	0
bin	0.23333333333333	0
bin	0.26666666666667	0
bin	0.3	0
bin	0.33333333333333	0
bin	0.36666666666667	0
bin	0.4	0
bin	0.43333333333333	0
bin	0.46666666666667	0
bin	0.5	0
scalar Net10.rte[6].queue[0] busy:timeavg 0
attr interpolationmode sample-hold
attr title "server busy state, timeavg"
scalar Net10.rte[6].queue[0] qlen:timeavg 0
attr interpolationmode sample-hold
attr title "queue length, timeavg"
scalar Net10.rte[6].queue[0] qlen:max 0
attr interpolationmode sample-hold
attr title "queue length, max"
scalar Net10.rte[6].queue[0] drop:count 0
attr interpolationmode none
attr title "dropped packet byte length, count"
attr unit bytes
scalar Net10.rte[6].queue[0] drop:sum 0
attr interpolationmode none
attr title "dropped packet byte length, sum"
attr unit bytes
scalar Net10.rte[6].queue[1] rxBytes:count 0
attr interpolationmode none
attr title "received packet byte length, count"
attr unit bytes
scalar Net10.rte[6].queue[1] rxBytes:sum 0
attr interpolationmode none
attr title "received packet byte length, sum"
attr unit bytes
statistic Net10.rte[6].queue[1] rxBytes:histogram
field count 0
field sum 0
field sqrsum 0
field min -nan
field max -nan
attr interpolationmode none
attr title "received packet byte length, histogram"
attr unit bytes
bin	-inf	0
bin	-0.5	0
bin	-0.46666666666667	0
bin	-0.43333333333333	0
bin	-0.4	0
bin	-0.36666666666667	0
bin	-0.33333333333333	0
bin	-0.3	0
bin	-0.26666666666667	0
bin	-0.23333333333333	0
bin	-0.2	0
bin	-0.16666666666667	0
bin	-0.13333333333333	0
bin	-0.1	0
bin	-0.066666666666667	0
bin	-0.033333333333333	0
bin	0	0
bin	0.033333333333333	0
bin	0.066666666666667	0
bin	0.1	0
bin	0.13333333333333	0
bin	0.16666666666667	0
bin	0.2	0
bin	0.23333333333333	0
bin	0.26666666666667	0
bin	0.3	0
bin	0.33333333333333	0
bin	0.36666666666667	0
bin	0.4	0
bin	0.43333333333333	0
bin	0.46666666666667	0
bin	0.5	0
scalar Net10.rte[6].queue[1] txBytes:count 0
attr interpolationmode none
attr title "transmitting packet byte length, count"
attr unit bytes
scalar Net10.rte[6].queue[1] txBytes:sum 0
attr interpolationmode none
attr title "transmitting packet byte length, sum"
attr unit bytes
statistic Net10.rte[6].queue[1] txBytes:histogram
field count 0
field sum 0
field sqrsum 0
field min -nan
field max -nan
attr interpolationmode none
attr title "transmitting packet byte length, histogram"
attr unit bytes
bin	-inf	0
bin	-0.5	0
bin	-0.46666666666667	0
bin	-0.43333333333333	0
bin	-0.4	0
bin	-0.36666666666667	0
bin	-0.33333333333333	0
bin	-0.3	0
bin	-0.26666666666667	0
bin	-0.23333333333333	0
bin	-0.2	0
bin	-0.16666666666667	0
bin	-0.13333333333333	0
bin	-0.1	0
bin	-0.066666666666667	0
bin	-0.033333333333333	0
bin	0	0
bin	0.033333333333333	0
bin	0.066666666666667	0
bin	0.1	0
bin	0.13333333333333	0
bin	0.16666666666667	0
bin	0.2	0
bin	0.23333333333333	0
bin	0.26666666666667	0
bin	0.3	0
bin	0.33333333333333	0
bin	0.36666666666667	0
bin	0.4	0
bin	0.43333333333333	0
bin	0.46666666666667	0
bin	0.5	0
scalar Net10.rte[6].queue[1] busy:timeavg 0
attr interpolationmode sample-hold
attr title "server busy state, timeavg"
scalar Net10.rte[6].queue[1] qlen:timeavg 0
attr interpolationmode sample-hold
attr title "queue length, timeavg"
scalar Net10.rte[6].queue[1] qlen:max 0
attr interpolationmode sample-hold
attr title "queue length, max"
scalar Net10.rte[6].queue[1] drop:count 0
attr interpolationmode none
attr title "dropped packet byte length, count"
attr unit bytes
scalar Net10.rte[6].queue[1] drop:sum 0
attr interpolationmode none
attr title "dropped packet byte length, sum"
attr unit bytes
scalar Net10.rte[6].queue[2] rxBytes:count 6618
attr interpolationmode none
attr title "received packet byte length, count"
attr unit bytes
scalar Net10.rte[6].queue[2] rxBytes:sum 27107328
attr interpolationmode none
attr title "received packet byte length, sum"
attr unit bytes
statistic Net10.rte[6].queue[2] rxBytes:histogram
field count 6618
field sum 27107328
field sqrsum 111031615488
field min 4096
field max 4096
attr interpolationmode none
attr title "received packet byte length, histogram"
attr unit bytes
bin	-inf	0
bin	4095	0
bin	4096	6618
bin	4097	0
scalar Net10.rte[6].queue[2] txBytes:count 0
attr interpolationmode none
attr title "transmitting packet byte length, count"
attr unit bytes
scalar Net10.rte[6].queue[2] txBytes:sum 0
attr interpolationmode none
attr title "transmitting packet byte length, sum"
attr unit bytes
statistic Net10.rte[6].queue[2] txBytes:histogram
field count 0
field sum 0
field sqrsum 0
field min -nan
field max -nan
attr interpolationmode none
attr title "transmitting packet byte length, histogram"
attr unit bytes
bin	-inf	0
bin	-0.5	0
bin	-0.46666666666667	0
bin	-0.43333333333333	0
bin	-0.4	0
bin	-0.36666666666667	0
bin	-0.33333333333333	0
bin	-0.3	0
bin	-0.26666666666667	0
bin	-0.23333333333333	0
bin	-0.2	0
bin	-0.16666666666667	0
bin	-0.13333333333333	0
bin	-0.1	0
bin	-0.066666666666667	0
bin	-0.033333333333333	0
bin	0	0
bin	0.033333333333333	0
bin	0.066666666666667	0
bin	0.1	0
bin	0.13333333333333	0
bin	0.16666666666667	0
bin	0.2	0
bin	0.23333333333333	0
bin	0.26666666666667	0
bin	0.3	0
bin	0.33333333333333	0
bin	0.36666666666667	0
bin	0.4	0
bin	0.43333333333333	0
bin	0.46666666666667	0
bin	0.5	0
scalar Net10.rte[6].queue[2] busy:timeavg 0
attr interpolationmode sample-hold
attr title "server busy state, timeavg"
scalar Net10.rte[6].queue[2] qlen:timeavg 0
attr interpolationmode sample-hold
attr title "queue length, timeavg"
scalar Net10.rte[6].queue[2] qlen:max 0
attr interpolationmode sample-hold
attr title "queue length, max"
scalar Net10.rte[6].queue[2] drop:count 0
attr interpolationmode none
attr title "dropped packet byte length, count"
attr unit bytes
scalar Net10.rte[6].queue[2] drop:sum 0
attr interpolationmode none
attr title "dropped packet byte length, sum"
attr unit bytes
scalar Net10.rte[6].queue[3] rxBytes:count 0
attr interpolationmode none
attr title "received packet byte length, count"
attr unit bytes
scalar Net10.rte[6].queue[3] rxBytes:sum 0
attr interpolationmode none
attr title "received packet byte length, sum"
attr unit bytes
statistic Net10.rte[6].queue[3] rxBytes:histogram
field count 0
field sum 0
field sqrsum 0
field min -nan
field max -nan
attr interpolationmode none
attr title "received packet byte length, histogram"
attr unit bytes
bin	-inf	0
bin	-0.5	0
bin	-0.46666666666667	0
bin	-0.43333333333333	0
bin	-0.4	0
bin	-0.36666666666667	0
bin	-0.33333333333333	0
bin	-0.3	0
bin	-0.26666666666667	0
bin	-0.23333333333333	0
bin	-0.2	0
bin	-0.16666666666667	0
bin	-0.13333333333333	0
bin	-0.1	0
bin	-0.066666666666667	0
bin	-0.033333333333333	0
bin	0	0
bin	0.033333333333333	0
bin	0.066666666666667	0
bin	0.1	0
bin	0.13333333333333	0
bin	0.16666666666667	0
bin	0.2	0
bin	0.23333333333333	0
bin	0.26666666666667	0
bin	0.3	0
bin	0.33333333333333	0
bin	0.36666666666667	0
bin	0.4	0
bin	0.43333333333333	0
bin	0.46666666666667	0
bin	0.5	0
scalar Net10.rte[6].queue[3] txBytes:count 0
attr interpolationmode none
attr title "transmitting packet byte length, count"
attr unit bytes
scalar Net10.rte[6].queue[3] txBytes:sum 0
attr interpolationmode none
attr title "transmitting packet byte length, sum"
attr unit bytes
statistic Net10.rte[6].queue[3] txBytes:histogram
field count 0
field sum 0
field sqrsum 0
field min -nan
field max -nan
attr interpolationmode none
attr title "transmitting packet byte length, histogram"
attr unit bytes
bin	-inf	0
bin	-0.5	0
bin	-0.46666666666667	0
bin	-0.43333333333333	0
bin	-0.4	0
bin	-0.36666666666667	0
bin	-0.33333333333333	0
bin	-0.3	0
bin	-0.26666666666667	0
bin	-0.23333333333333	0
bin	-0.2	0
bin	-0.16666666666667	0
bin	-0.13333333333333	0
bin	-0.1	0
bin	-0.066666666666667	0
bin	-0.033333333333333	0
bin	0	0
bin	0.033333333333333	0
bin	0.066666666666667	0
bin	0.1	0
bin	0.13333333333333	0
bin	0.16666666666667	0
bin	0.2	0
bin	0.23333333333333	0
bin	0.26666666666667	0
bin	0.3	0
bin	0.33333333333333	0
bin	0.36666666666667	0
bin	0.4	0
bin	0.43333333333333	0
bin	0.46666666666667	0
bin	0.5	0
scalar Net10.rte[6].queue[3] busy:timeavg 0
attr interpolationmode sample-hold
attr title "server busy state, timeavg"
scalar Net10.rte[6].queue[3] qlen:timeavg 0
attr interpolationmode sample-hold
attr title "queue length, timeavg"
scalar Net10.rte[6].queue[3] qlen:max 0
attr interpolationmode sample-hold
attr title "queue length, max"
scalar Net10.rte[6].queue[3] drop:count 0
attr interpolationmode none
attr title "dropped packet byte length, count"
attr unit bytes
scalar Net10.rte[6].queue[3] drop:sum 0
attr interpolationmode none
attr title "dropped packet byte length, sum"
attr unit bytes
scalar Net10.rte[6].queue[4] rxBytes:count 0
attr interpolationmode none
attr title "received packet byte length, count"
attr unit bytes
scalar Net10.rte[6].queue[4] rxBytes:sum 0
attr interpolationmode none
attr title "received packet byte length, sum"
attr unit bytes
statistic Net10.rte[6].queue[4] rxBytes:histogram
field count 0
field sum 0
field sqrsum 0
field min -nan
field max -nan
attr interpolationmode none
attr title "received packet byte length, histogram"
attr unit bytes
bin	-inf	0
bin	-0.5	0
bin	-0.46666666666667	0
bin	-0.43333333333333	0
bin	-0.4	0
bin	-0.36666666666667	0
bin	-0.33333333333333	0
bin	-0.3	0
bin	-0.26666666666667	0
bin	-0.23333333333333	0
bin	-0.2	0
bin	-0.16666666666667	0
bin	-0.13333333333333	0
bin	-0.1	0
bin	-0.066666666666667	0
bin	-0.033333333333333	0
bin	0	0
bin	0.033333333333333	0
bin	0.066666666666667	0
bin	0.1	0
bin	0.13333333333333	0
bin	0.16666666666667	0
bin	0.2	0
bin	0.23333333333333	0
bin	0.26666666666667	0
bin	0.3	0
bin	0.33333333333333	0
bin	0.36666666666667	0
bin	0.4	0
bin	0.43333333333333	0
bin	0.46666666666667	0
bin	0.5	0
scalar Net10.rte[6].queue[4] txBytes:count 13261
attr interpolationmode none
attr title "transmitting packet byte length, count"
attr unit bytes
scalar Net10.rte[6].queue[4] txBytes:sum 54317056
attr interpolationmode none
attr title "transmitting packet byte length, sum"
attr unit bytes
statistic Net10.rte[6].queue[4] txBytes:histogram
field count 13261
field sum 54317056
field sqrsum 222482661376
field min 4096
field max 4096
attr interpolationmode none
attr title "transmitting packet byte length, histogram"
attr unit bytes
bin	-inf	0
bin	4095	0
bin	4096	13261
bin	4097	0
scalar Net10.rte[6].queue[4] busy:timeavg 0.36211370666662
attr interpolationmode sample-hold
attr title "server busy state, timeavg"
scalar Net10.rte[6].queue[4] qlen:timeavg 0.085583956874889
attr interpolationmode sample-hold
attr title "queue length, timeavg"
scalar Net10.rte[6].queue[4] qlen:max 6
attr interpolationmode sample-hold
attr title "queue length, max"
scalar Net10.rte[6].queue[4] drop:count 0
attr interpolationmode none
attr title "dropped packet byte length, count"
attr unit bytes
scalar Net10.rte[6].queue[4] drop:sum 0
attr interpolationmode none
attr title "dropped packet byte length, sum"
attr unit bytes
scalar Net10.rte[7].app hopCount:mean -nan
attr interpolationmode none
attr title "hop count of arrived packets, mean"
scalar Net10.rte[7].app hopCount:max -nan
attr interpolationmode none
attr title "hop count of arrived packets, max"
scalar Net10.rte[7].app endToEndDelay:mean -nan
attr interpolationmode none
attr title "end-to-end delay of arrived packets, mean"
attr unit s
scalar Net10.rte[7].app endToEndDelay:max -nan
attr interpolationmode none
attr title "end-to-end delay of arrived packets, max"
attr unit s
statistic Net10.rte[7].routing outputIf:histogram
field count 6800
field sum 0
field sqrsum 0
field min 0
field max 0
attr interpolationmode none
attr title "output interface for each routed packet, histogram"
bin	-inf	0
bin	-0.5	0
bin	-0.46666666666667	0
bin	-0.43333333333333	0
bin	-0.4	0
bin	-0.36666666666667	0
bin	-0.33333333333333	0
bin	-0.3	0
bin	-0.26666666666667	0
bin	-0.23333333333333	0
bin	-0.2	0
bin	-0.16666666666667	0
bin	-0.13333333333333	0
bin	-0.1	0
bin	-0.066666666666667	0
bin	-0.033333333333333	0
bin	0	6800
bin	0.033333333333333	0
bin	0.066666666666667	0
bin	0.1	0
bin	0.13333333333333	0
bin	0.16666666666667	0
bin	0.2	0
bin	0.23333333333333	0
bin	0.26666666666667	0
bin	0.3	0
bin	0.33333333333333	0
bin	0.36666666666667	0
bin	0.4	0
bin	0.43333333333333	0
bin	0.46666666666667	0
bin	0.5	0
scalar Net10.rte[7].routing drop:count 0
attr interpolationmode none
attr title "dropped packet byte length, count"
attr unit bytes
scalar Net10.rte[7].routing drop:sum 0
attr interpolationmode none
attr title "dropped packet byte length, sum"
attr unit bytes
scalar Net10.rte[7].queue[0] rxBytes:count 0
attr interpolationmode none
attr title "received packet byte length, count"
attr unit bytes
scalar Net10.rte[7].queue[0] rxBytes:sum 0
attr interpolationmode none
attr title "received packet byte length, sum"
attr unit bytes
statistic Net10.rte[7].queue[0] rxBytes:histogram
field count 0
field sum 0
field sqrsum 0
field min -nan
field max -nan
attr interpolationmode none
attr title "received packet byte length, histogram"
attr unit bytes
bin	-inf	0
bin	-0.5	0
bin	-0.46666666666667	0
bin	-0.43333333333333	0
bin	-0.4	0
bin	-0.36666666666667	0
bin	-0.33333333333333	0
bin	-0.3	0
bin	-0.26666666666667	0
bin	-0.23333333333333	0
bin	-0.2	0
bin	-0.16666666666667	0
bin	-0.13333333333333	0
bin	-0.1	0
bin	-0.066666666666667	0
bin	-0.033333333333333	0
bin	0	0
bin	0.033333333333333	0
bin	0.066666666666667	0
bin	0.1	0
bin	0.13333333333333	0
bin	0.16666666666667	0
bin	0.2	0
bin	0.23333333333333	0
bin	0.26666666666667	0
bin	0.3	0
bin	0.33333333333333	0
bin	0.36666666666667	0
bin	0.4	0
bin	0.43333333333333	0
bin	0.46666666666667	0
bin	0.5	0
scalar Net10.rte[7].queue[0] txBytes:count 6800
attr interpolationmode none
attr title "transmitting packet byte length, count"
attr unit bytes
scalar Net10.rte[7].queue[0] txBytes:sum 27852800
attr interpolationmode none
attr title "transmitting packet byte length, sum"
attr unit bytes
statistic Net10.rte[7].queue[0] txBytes:histogram
field count 6800
field sum 27852800
field sqrsum 114085068800
field min 4096
field max 4096
attr interpolationmode none
attr title "transmitting packet byte length, histogram"
attr unit bytes
bin	-inf	0
bin	4095	0
bin	4096	6800
bin	4097	0
scalar Net10.rte[7].queue[0] busy:timeavg 0.18568533333335
attr interpolationmode sample-hold
attr title "server busy state, timeavg"
scalar Net10.rte[7].queue[0] qlen:timeavg 0.022479272042398
attr interpolationmode sample-hold
attr title "queue length, timeavg"
scalar Net10.rte[7].queue[0] qlen:max 4
attr interpolationmode sample-hold
attr title "queue length, max"
scalar Net10.rte[7].queue[0] drop:count 0
attr interpolationmode none
attr title "dropped packet byte length, count"
attr unit bytes
scalar Net10.rte[7].queue[0] drop:sum 0
attr interpolationmode none
[...]
bin	-0.33333333333333	0
bin	-0.3	0
bin	-0.26666666666667	0
bin	-0.23333333333333	0
bin	-0.2	0
bin	-0.16666666666667	0
bin	-0.13333333333333	0
bin	-0.1	0
bin	-0.066666666666667	0
bin	-0.033333333333333	0
bin	0	0
bin	0.033333333333333	0
bin	0.066666666666667	0
bin	0.1	0
bin	0.13333333333333	0
bin	0.16666666666667	0
bin	0.2	0
bin	0.23333333333333	0
bin	0.26666666666667	0
bin	0.3	0
bin	0.33333333333333	0
bin	0.36666666666667	0
bin	0.4	0
bin	0.43333333333333	0
bin	0.46666666666667	0
bin	0.5	0
scalar Net10.rte[7].queue[2] txBytes:count 0
attr interpolationmode none
attr title "transmitting packet byte length, count"
attr unit bytes
scalar Net10.rte[7].queue[2] txBytes:sum 0
attr interpolationmode none
attr title "transmitting packet byte length, sum"
attr unit bytes
statistic Net10.rte[7].queue[2] txBytes:histogram
field count 0
field sum 0
field sqrsum 0
field min -nan
field max -nan
attr interpolationmode none
attr title "transmitting packet byte length, histogram"
attr unit bytes
bin	-inf	0
bin	-0.5	0
bin	-0.46666666666667	0
bin	-0.43333333333333	0
bin	-0.4	0
bin	-0.36666666666667	0
bin	-0.33333333333333	0
bin	-0.3	0
bin	-0.26666666666667	0
bin	-0.23333333333333	0
bin	-0.2	0
bin	-0.16666666666667	0
bin	-0.13333333333333	0
bin	-0.1	0
bin	-0.066666666666667	0
bin	-0.033333333333333	0
bin	0	0
bin	0.033333333333333	0
bin	0.066666666666667	0
bin	0.1	0
bin	0.13333333333333	0
bin	0.16666666666667	0
bin	0.2	0
bin	0.23333333333333	0
bin	0.26666666666667	0
bin	0.3	0
bin	0.33333333333333	0
bin	0.36666666666667	0
bin	0.4	0
bin	0.43333333333333	0
bin	0.46666666666667	0
bin	0.5	0
scalar Net10.rte[7].queue[2] busy:timeavg 0
attr interpolationmode sample-hold
attr title "server busy state, timeavg"
scalar Net10.rte[7].queue[2] qlen:timeavg 0
attr interpolationmode sample-hold
attr title "queue length, timeavg"
scalar Net10.rte[7].queue[2] qlen:max 0
attr interpolationmode sample-hold
attr title "queue length, max"
scalar Net10.rte[7].queue[2] drop:count 0
attr interpolationmode none
attr title "dropped packet byte length, count"
attr unit bytes
scalar Net10.rte[7].queue[2] drop:sum 0
attr interpolationmode none
attr title "dropped packet byte length, sum"
attr unit bytes
scalar Net10.rte[8].app hopCount:mean -nan
attr interpolationmode none
attr title "hop count of arrived packets, mean"
scalar Net10.rte[8].app hopCount:max -nan
attr interpolationmode none
attr title "hop count of arrived packets, max"
scalar Net10.rte[8].app endToEndDelay:mean -nan
attr interpolationmode none
attr title "end-to-end delay of arrived packets, mean"
attr unit s
scalar Net10.rte[8].app endToEndDelay:max -nan
attr interpolationmode none
attr title "end-to-end delay of arrived packets, max"
attr unit s
statistic Net10.rte[8].routing outputIf:histogram
field count 6613
field sum 6613
field sqrsum 6613
field min 1
field max 1
attr interpolationmode none
attr title "output interface for each routed packet, histogram"
bin	-inf	0
bin	0	0
bin	1	6613
bin	2	0
scalar Net10.rte[8].routing drop:count 0
attr interpolationmode none
attr title "dropped packet byte length, count"
attr unit bytes
scalar Net10.rte[8].routing drop:sum 0
attr interpolationmode none
attr title "dropped packet byte length, sum"
attr unit bytes
scalar Net10.rte[8].queue[0] rxBytes:count 0
attr interpolationmode none
attr title "received packet byte length, count"
attr unit bytes
scalar Net10.rte[8].queue[0] rxBytes:sum 0
attr interpolationmode none
attr title "received packet byte length, sum"
attr unit bytes
statistic Net10.rte[8].queue[0] rxBytes:histogram
field count 0
field sum 0
field sqrsum 0
field min -nan
field max -nan
attr interpolationmode none
attr title "received packet byte length, histogram"
attr unit bytes
bin	-inf	0
bin	-0.5	0
bin	-0.46666666666667	0
bin	-0.43333333333333	0
bin	-0.4	0
bin	-0.36666666666667	0
bin	-0.33333333333333	0
bin	-0.3	0
bin	-0.26666666666667	0
bin	-0.23333333333333	0
bin	-0.2	0
bin	-0.16666666666667	0
bin	-0.13333333333333	0
bin	-0.1	0
bin	-0.066666666666667	0
bin	-0.033333333333333	0
bin	0	0
bin	0.033333333333333	0
bin	0.066666666666667	0
bin	0.1	0
bin	0.13333333333333	0
bin	0.16666666666667	0
bin	0.2	0
bin	0.23333333333333	0
bin	0.26666666666667	0
bin	0.3	0
bin	0.33333333333333	0
bin	0.36666666666667	0
bin	0.4	0
bin	0.43333333333333	0
bin	0.46666666666667	0
bin	0.5	0
scalar Net10.rte[8].queue[0] txBytes:count 0
attr interpolationmode none
attr title "transmitting packet byte length, count"
attr unit bytes
scalar Net10.rte[8].queue[0] txBytes:sum 0
attr interpolationmode none
attr title "transmitting packet byte length, sum"
attr unit bytes
statistic Net10.rte[8].queue[0] txBytes:histogram
field count 0
field sum 0
field sqrsum 0
field min -nan
field max -nan
attr interpolationmode none
attr title "transmitting packet byte length, histogram"
attr unit bytes
bin	-inf	0
bin	-0.5	0
bin	-0.46666666666667	0
bin	-0.43333333333333	0
bin	-0.4	0
bin	-0.36666666666667	0
bin	-0.33333333333333	0
bin	-0.3	0
bin	-0.26666666666667	0
bin	-0.23333333333333	0
bin	-0.2	0
bin	-0.16666666666667	0
bin	-0.13333333333333	0
bin	-0.1	0
bin	-0.066666666666667	0
bin	-0.033333333333333	0
bin	0	0
bin	0.033333333333333	0
bin	0.066666666666667	0
bin	0.1	0
bin	0.13333333333333	0
bin	0.16666666666667	0
bin	0.2	0
bin	0.23333333333333	0
bin	0.26666666666667	0
bin	0.3	0
bin	0.33333333333333	0
bin	0.36666666666667	0
bin	0.4	0
bin	0.43333333333333	0
bin	0.46666666666667	0
bin	0.5	0
scalar Net10.rte[8].queue[0] busy:timeavg 0
attr interpolationmode sample-hold
attr title "server busy state, timeavg"
scalar Net10.rte[8].queue[0] qlen:timeavg 0
attr interpolationmode sample-hold
attr title "queue length, timeavg"
scalar Net10.rte[8].queue[0] qlen:max 0
attr interpolationmode sample-hold
attr title "queue length, max"
scalar Net10.rte[8].queue[0] drop:count 0
attr interpolationmode none
attr title "dropped packet byte length, count"
attr unit bytes
scalar Net10.rte[8].queue[0] drop:sum 0
attr interpolationmode none
attr title "dropped packet byte length, sum"
attr unit bytes
scalar Net10.rte[8].queue[1] rxBytes:count 0
attr interpolationmode none
attr title "received packet byte length, count"
attr unit bytes
scalar Net10.rte[8].queue[1] rxBytes:sum 0
attr interpolationmode none
attr title "received packet byte length, sum"
attr unit bytes
statistic Net10.rte[8].queue[1] rxBytes:histogram
field count 0
field sum 0
field sqrsum 0
field min -nan
field max -nan
attr interpolationmode none
attr title "received packet byte length, histogram"
attr unit bytes
bin	-inf	0
bin	-0.5	0
bin	-0.46666666666667	0
bin	-0.43333333333333	0
bin	-0.4	0
bin	-0.36666666666667	0
bin	-0.33333333333333	0
bin	-0.3	0
bin	-0.26666666666667	0
bin	-0.23333333333333	0
bin	-0.2	0
bin	-0.16666666666667	0
bin	-0.13333333333333	0
bin	-0.1	0
bin	-0.066666666666667	0
bin	-0.033333333333333	0
bin	0	0
bin	0.033333333333333	0
bin	0.066666666666667	0
bin	0.1	0
bin	0.13333333333333	0
bin	0.16666666666667	0
bin	0.2	0
bin	0.23333333333333	0
bin	0.26666666666667	0
bin	0.3	0
bin	0.33333333333333	0
bin	0.36666666666667	0
bin	0.4	0
bin	0.43333333333333	0
bin	0.46666666666667	0
bin	0.5	0
scalar Net10.rte[8].queue[1] txBytes:count 6613
attr interpolationmode none
attr title "transmitting packet byte length, count"
attr unit bytes
scalar Net10.rte[8].queue[1] txBytes:sum 27086848
attr interpolationmode none
attr title "transmitting packet byte length, sum"
attr unit bytes
statistic Net10.rte[8].queue[1] txBytes:histogram
field count 6613
field sum 27086848
field sqrsum 110947729408
field min 4096
field max 4096
attr interpolationmode none
attr title "transmitting packet byte length, histogram"
attr unit bytes
bin	-inf	0
bin	4095	0
bin	4096	6613
bin	4097	0
scalar Net10.rte[8].queue[1] busy:timeavg 0.18056231799291
attr interpolationmode sample-hold
attr title "server busy state, timeavg"
scalar Net10.rte[8].queue[1] qlen:timeavg 0.019432362789849
attr interpolationmode sample-hold
attr title "queue length, timeavg"
scalar Net10.rte[8].queue[1] qlen:max 6
attr interpolationmode sample-hold
attr title "queue length, max"
scalar Net10.rte[8].queue[1] drop:count 0
attr interpolationmode none
attr title "dropped packet byte length, count"
attr unit bytes
scalar Net10.rte[8].queue[1] drop:sum 0
attr interpolationmode none
attr title "dropped packet byte length, sum"
attr unit bytes
scalar Net10.rte[8].queue[2] rxBytes:count 0
attr interpolationmode none
attr title "received packet byte length, count"
attr unit bytes
scalar Net10.rte[8].queue[2] rxBytes:sum 0
attr interpolationmode none
attr title "received packet byte length, sum"
attr unit bytes
statistic Net10.rte[8].queue[2] rxBytes:histogram
field count 0
field sum 0
field sqrsum 0
field min -nan
field max -nan
attr interpolationmode none
attr title "received packet byte length, histogram"
attr unit bytes
bin	-inf	0
bin	-0.5	0
bin	-0.46666666666667	0
bin	-0.43333333333333	0
bin	-0.4	0
bin	-0.36666666666667	0
bin	-0.33333333333333	0
bin	-0.3	0
bin	-0.26666666666667	0
bin	-0.23333333333333	0
bin	-0.2	0
bin	-0.16666666666667	0
bin	-0.13333333333333	0
bin	-0.1	0
bin	-0.066666666666667	0
bin	-0.033333333333333	0
bin	0	0
bin	0.033333333333333	0
bin	0.066666666666667	0
bin	0.1	0
bin	0.13333333333333	0
bin	0.16666666666667	0
bin	0.2	0
bin	0.23333333333333	0
bin	0.26666666666667	0
bin	0.3	0
bin	0.33333333333333	0
bin	0.36666666666667	0
bin	0.4	0
bin	0.43333333333333	0
bin	0.46666666666667	0
bin	0.5	0
scalar Net10.rte[8].queue[2] txBytes:count 0
attr interpolationmode none
attr title "transmitting packet byte length, count"
attr unit bytes
scalar Net10.rte[8].queue[2] txBytes:sum 0
attr interpolationmode none
attr title "transmitting packet byte length, sum"
attr unit bytes
statistic Net10.rte[8].queue[2] txBytes:histogram
field count 0
field sum 0
field sqrsum 0
field min -nan
field max -nan
attr interpolationmode none
attr title "transmitting packet byte length, histogram"
attr unit bytes
bin	-inf	0
bin	-0.5	0
bin	-0.46666666666667	0
bin	-0.43333333333333	0
bin	-0.4	0
bin	-0.36666666666667	0
bin	-0.33333333333333	0
bin	-0.3	0
bin	-0.26666666666667	0
bin	-0.23333333333333	0
bin	-0.2	0
bin	-0.16666666666667	0
bin	-0.13333333333333	0
bin	-0.1	0
bin	-0.066666666666667	0
bin	-0.033333333333333	0
bin	0	0
bin	0.033333333333333	0
bin	0.066666666666667	0
bin	0.1	0
bin	0.13333333333333	0
bin	0.16666666666667	0
bin	0.2	0
bin	0.23333333333333	0
bin	0.26666666666667	0
bin	0.3	0
bin	0.33333333333333	0
bin	0.36666666666667	0
bin	0.4	0
bin	0.43333333333333	0
bin	0.46666666666667	0
bin	0.5	0
scalar Net10.rte[8].queue[2] busy:timeavg 0
attr interpolationmode sample-hold
attr title "server busy state, timeavg"
scalar Net10.rte[8].queue[2] qlen:timeavg 0
attr interpolationmode sample-hold
attr title "queue length, timeavg"
scalar Net10.rte[8].queue[2] qlen:max 0
attr interpolationmode sample-hold
attr title "queue length, max"
scalar Net10.rte[8].queue[2] drop:count 0
attr interpolationmode none
attr title "dropped packet byte length, count"
attr unit bytes
scalar Net10.rte[8].queue[2] drop:sum 0
attr interpolationmode none
attr title "dropped packet byte length, sum"
attr unit bytes
scalar Net10.rte[9].app hopCount:mean -nan
attr interpolationmode none
attr title "hop count of arrived packets, mean"
scalar Net10.rte[9].app hopCount:max -nan
attr interpolationmode none
attr title "hop count of arrived packets, max"
scalar Net10.rte[9].app endToEndDelay:mean -nan
attr interpolationmode none
attr title "end-to-end delay of arrived packets, mean"
attr unit s
scalar Net10.rte[9].app endToEndDelay:max -nan
attr interpolationmode none
attr title "end-to-end delay of arrived packets, max"
attr unit s
statistic Net10.rte[9].routing outputIf:histogram
field count 6618
field sum 13236
field sqrsum 26472
field min 2
field max 2
attr interpolationmode none
attr title "output interface for each routed packet, histogram"
bin	-inf	0
bin	1	0
bin	2	6618
bin	3	0
scalar Net10.rte[9].routing drop:count 0
attr interpolationmode none
attr title "dropped packet byte length, count"
attr unit bytes
scalar Net10.rte[9].routing drop:sum 0
attr interpolationmode none
attr title "dropped packet byte length, sum"
attr unit bytes
scalar Net10.rte[9].queue[0] rxBytes:count 0
attr interpolationmode none
attr title "received packet byte length, count"
attr unit bytes
scalar Net10.rte[9].queue[0] rxBytes:sum 0
attr interpolationmode none
attr title "received packet byte length, sum"
attr unit bytes
statistic Net10.rte[9].queue[0] rxBytes:histogram
field count 0
field sum 0
field sqrsum 0
field min -nan
field max -nan
attr interpolationmode none
attr title "received packet byte length, histogram"
attr unit bytes
bin	-inf	0
bin	-0.5	0
bin	-0.46666666666667	0
bin	-0.43333333333333	0
bin	-0.4	0
bin	-0.36666666666667	0
bin	-0.33333333333333	0
bin	-0.3	0
bin	-0.26666666666667	0
bin	-0.23333333333333	0
bin	-0.2	0
bin	-0.16666666666667	0
bin	-0.13333333333333	0
bin	-0.1	0
bin	-0.066666666666667	0
bin	-0.033333333333333	0
bin	0	0
bin	0.033333333333333	0
bin	0.066666666666667	0
bin	0.1	0
bin	0.13333333333333	0
bin	0.16666666666667	0
bin	0.2	0
bin	0.23333333333333	0
bin	0.26666666666667	0
bin	0.3	0
bin	0.33333333333333	0
bin	0.36666666666667	0
bin	0.4	0
bin	0.43333333333333	0
bin	0.46666666666667	0
bin	0.5	0
scalar Net10.rte[9].queue[0] txBytes:count 0
attr interpolationmode none
attr title "transmitting packet byte length, count"
attr unit bytes
scalar Net10.rte[9].queue[0] txBytes:sum 0
attr interpolationmode none
attr title "transmitting packet byte length, sum"
attr unit bytes
statistic Net10.rte[9].queue[0] txBytes:histogram
field count 0
field sum 0
field sqrsum 0
field min -nan
field max -nan
attr interpolationmode none
attr title "transmitting packet byte length, histogram"
attr unit bytes
bin	-inf	0
bin	-0.5	0
bin	-0.46666666666667	0
bin	-0.43333333333333	0
bin	-0.4	0
bin	-0.36666666666667	0
bin	-0.33333333333333	0
bin	-0.3	0
bin	-0.26666666666667	0
bin	-0.23333333333333	0
bin	-0.2	0
bin	-0.16666666666667	0
bin	-0.13333333333333	0
bin	-0.1	0
bin	-0.066666666666667	0
bin	-0.033333333333333	0
bin	0	0
bin	0.033333333333333	0
bin	0.066666666666667	0
bin	0.1	0
bin	0.13333333333333	0
bin	0.16666666666667	0
bin	0.2	0
bin	0.23333333333333	0
bin	0.26666666666667	0
bin	0.3	0
bin	0.33333333333333	0
bin	0.36666666666667	0
bin	0.4	0
bin	0.43333333333333	0
bin	0.46666666666667	0
bin	0.5	0
scalar Net10.rte[9].queue[0] busy:timeavg 0
attr interpolationmode sample-hold
attr title "server busy state, timeavg"
scalar Net10.rte[9].queue[0] qlen:timeavg 0
attr interpolationmode sample-hold
attr title "queue length, timeavg"
scalar Net10.rte[9].queue[0] qlen:max 0
attr interpolationmode sample-hold
attr title "queue length, max"
scalar Net10.rte[9].queue[0] drop:count 0
attr interpolationmode none
attr title "dropped packet byte length, count"
attr unit bytes
scalar Net10.rte[9].queue[0] drop:sum 0
attr interpolationmode none
attr title "dropped packet byte length, sum"
attr unit bytes
scalar Net10.rte[9].queue[1] rxBytes:count 0
attr interpolationmode none
attr title "received packet byte length, count"
attr unit bytes
scalar Net10.rte[9].queue[1] rxBytes:sum 0
attr interpolationmode none
attr title "received packet byte length, sum"
attr unit bytes
statistic Net10.rte[9].queue[1] rxBytes:histogram
field count 0
field sum 0
field sqrsum 0
field min -nan
field max -nan
attr interpolationmode none
attr title "received packet byte length, histogram"
attr unit bytes
bin	-inf	0
bin	-0.5	0
bin	-0.46666666666667	0
bin	-0.43333333333333	0
bin	-0.4	0
bin	-0.36666666666667	0
bin	-0.33333333333333	0
bin	-0.3	0
bin	-0.26666666666667	0
bin	-0.23333333333333	0
bin	-0.2	0
bin	-0.16666666666667	0
bin	-0.13333333333333	0
bin	-0.1	0
bin	-0.066666666666667	0
bin	-0.033333333333333	0
bin	0	0
bin	0.033333333333333	0
bin	0.066666666666667	0
bin	0.1	0
bin	0.13333333333333	0
bin	0.16666666666667	0
bin	0.2	0
bin	0.23333333333333	0
bin	0.26666666666667	0
bin	0.3	0
bin	0.33333333333333	0
bin	0.36666666666667	0
bin	0.4	0
bin	0.43333333333333	0
bin	0.46666666666667	0
bin	0.5	0
scalar Net10.rte[9].queue[1] txBytes:count 0
attr interpolationmode none
attr title "transmitting packet byte length, count"
attr unit bytes
scalar Net10.rte[9].queue[1] txBytes:sum 0
attr interpolationmode none
attr title "transmitting packet byte length, sum"
attr unit bytes
statistic Net10.rte[9].queue[1] txBytes:histogram
field count 0
field sum 0
field sqrsum 0
field min -nan
field max -nan
attr interpolationmode none
attr title "transmitting packet byte length, histogram"
attr unit bytes
bin	-inf	0
bin	-0.5	0
bin	-0.46666666666667	0
bin	-0.43333333333333	0
bin	-0.4	0
bin	-0.36666666666667	0
bin	-0.33333333333333	0
bin	-0.3	0
bin	-0.26666666666667	0
bin	-0.23333333333333	0
bin	-0.2	0
bin	-0.16666666666667	0
bin	-0.13333333333333	0
bin	-0.1	0
bin	-0.066666666666667	0
bin	-0.033333333333333	0
bin	0	0
bin	0.033333333333333	0
bin	0.066666666666667	0
bin	0.1	0
bin	0.13333333333333	0
bin	0.16666666666667	0
bin	0.2	0
bin	0.23333333333333	0
bin	0.26666666666667	0
bin	0.3	0
bin	0.33333333333333	0
bin	0.36666666666667	0
bin	0.4	0
bin	0.43333333333333	0
bin	0.46666666666667	0
bin	0.5	0
scalar Net10.rte[9].queue[1] busy:timeavg 0
attr interpolationmode sample-hold
attr title "server busy state, timeavg"
scalar Net10.rte[9].queue[1] qlen:timeavg 0
attr interpolationmode sample-hold
attr title "queue length, timeavg"
scalar Net10.rte[9].queue[1] qlen:max 0
attr interpolationmode sample-hold
attr title "queue length, max"
scalar Net10.rte[9].queue[1] drop:count 0
attr interpolationmode none
attr title "dropped packet byte length, count"
attr unit bytes
scalar Net10.rte[9].queue[1] drop:sum 0
attr interpolationmode none
attr title "dropped packet byte length, sum"
attr unit bytes
scalar Net10.rte[9].queue[2] rxBytes:count 0
attr interpolationmode none
attr title "received packet byte length, count"
attr unit bytes
scalar Net10.rte[9].queue[2] rxBytes:sum 0
attr interpolationmode none
attr title "received packet byte length, sum"
attr unit bytes
statistic Net10.rte[9].queue[2] rxBytes:histogram
field count 0
field sum 0
field sqrsum 0
field min -nan
field max -nan
attr interpolationmode none
attr title "received packet byte length, histogram"
attr unit bytes
bin	-inf	0
bin	-0.5	0
bin	-0.46666666666667	0
bin	-0.43333333333333	0
bin	-0.4	0
bin	-0.36666666666667	0
bin	-0.33333333333333	0
bin	-0.3	0
bin	-0.26666666666667	0
bin	-0.23333333333333	0
bin	-0.2	0
bin	-0.16666666666667	0
bin	-0.13333333333333	0
bin	-0.1	0
bin	-0.066666666666667	0
bin	-0.033333333333333	0
bin	0	0
bin	0.033333333333333	0
bin	0.066666666666667	0
bin	0.1	0
bin	0.13333333333333	0
bin	0.16666666666667	0
bin	0.2	0
bin	0.23333333333333	0
bin	0.26666666666667	0
bin	0.3	0
bin	0.33333333333333	0
bin	0.36666666666667	0
bin	0.4	0
bin	0.43333333333333	0
bin	0.46666666666667	0
bin	0.5	0
scalar Net10.rte[9].queue[2] txBytes:count 6618
attr interpolationmode none
attr title "transmitting packet byte length, count"
attr unit bytes
scalar Net10.rte[9].queue[2] txBytes:sum 27107328
attr interpolationmode none
attr title "transmitting packet byte length, sum"
attr unit bytes
statistic Net10.rte[9].queue[2] txBytes:histogram
field count 6618
field sum 27107328
field sqrsum 111031615488
field min 4096
field max 4096
attr interpolationmode none
attr title "transmitting packet byte length, histogram"
attr unit bytes
bin	-inf	0
bin	4095	0
bin	4096	6618
bin	4097	0
scalar Net10.rte[9].queue[2] busy:timeavg 0.18071552000001
attr interpolationmode sample-hold
attr title "server busy state, timeavg"
scalar Net10.rte[9].queue[2] qlen:timeavg 0.020377144505283
attr interpolationmode sample-hold
attr title "queue length, timeavg"
scalar Net10.rte[9].queue[2] qlen:max 3
attr interpolationmode sample-hold
attr title "queue length, max"
scalar Net10.rte[9].queue[2] drop:count 0
attr interpolationmode none
attr title "dropped packet byte length, count"
attr unit bytes
scalar Net10.rte[9].queue[2] drop:sum 0
attr interpolationmode none
attr title "dropped packet byte length, sum"
attr unit bytes

