version 3
run Net10Experiment-7-20211207-20:10:13-304024
attr configname Net10Experiment
attr datetime 20211207-20:10:13
attr datetimef 20211207-201013
attr experiment Net10Experiment
attr inifile omnetpp.ini
attr iterationvars "$iaMean=200, $cutThrough=true"
attr iterationvarsd iaMean=200/cutThrough=true
attr iterationvarsf iaMean=200,cutThrough=true-
attr measurement "$iaMean=200, $cutThrough=true"
attr network networks.Net10
attr processid 304024
attr repetition 0
attr replication #0
attr resultdir results
attr runnumber 7
attr seedset 7
itervar cutThrough true
itervar iaMean 200
config cmdenv-redirect-output true
config network networks.Net10
config **.destAddresses "\"1\""
config **.app.sendIaTime "exponential(200 ms)"
config **.queue[*].useCutThroughSwitching true
config **.queue[*].frameCapacity 100
config **.vector-recording false
config sim-time-limit 1200s
config **.appType "\"App\""
config **.app.packetLength "4096 bytes"

par Net10.rte[1].port$o[0].channel typename "\"networks.Net10.C\""
par Net10.rte[1].port$o[0].channel disabled false
attr mutable ""
par Net10.rte[1].port$o[0].channel delay 0.000168677s
attr mutable ""
attr unit s
par Net10.rte[1].port$o[0].channel datarate 1e+06bps
attr mutable ""
attr unit bps
par Net10.rte[1].port$o[0].channel ber 0
attr mutable ""
par Net10.rte[1].port$o[0].channel per 0
attr mutable ""
par Net10.rte[0].port$o[0].channel typename "\"networks.Net10.C\""
par Net10.rte[0].port$o[0].channel disabled false
attr mutable ""
par Net10.rte[0].port$o[0].channel delay 0.000304605s
attr mutable ""
attr unit s
par Net10.rte[0].port$o[0].channel datarate 1e+06bps
attr mutable ""
attr unit bps
par Net10.rte[0].port$o[0].channel ber 0
attr mutable ""
par Net10.rte[0].port$o[0].channel per 0
attr mutable ""
par Net10.rte[0].port$o[1].channel typename "\"networks.Net10.C\""
par Net10.rte[0].port$o[1].channel disabled false
attr mutable ""
par Net10.rte[0].port$o[1].channel delay 0.000801927s
attr mutable ""
attr unit s
par Net10.rte[0].port$o[1].channel datarate 1e+06bps
attr mutable ""
attr unit bps
par Net10.rte[0].port$o[1].channel ber 0
attr mutable ""
par Net10.rte[0].port$o[1].channel per 0
attr mutable ""
par Net10.rte[2].port$o[0].channel typename "\"networks.Net10.C\""
par Net10.rte[2].port$o[0].channel disabled false
attr mutable ""
par Net10.rte[2].port$o[0].channel delay 0.000387075s
attr mutable ""
attr unit s
par Net10.rte[2].port$o[0].channel datarate 1e+06bps
attr mutable ""
attr unit bps
par Net10.rte[2].port$o[0].channel ber 0
attr mutable ""
par Net10.rte[2].port$o[0].channel per 0
attr mutable ""
par Net10.rte[2].port$o[1].channel typename "\"networks.Net10.C\""
par Net10.rte[2].port$o[1].channel disabled false
attr mutable ""
par Net10.rte[2].port$o[1].channel delay 0.000494568s
attr mutable ""
attr unit s
par Net10.rte[2].port$o[1].channel datarate 1e+06bps
attr mutable ""
attr unit bps
par Net10.rte[2].port$o[1].channel ber 0
attr mutable ""
par Net10.rte[2].port$o[1].channel per 0
attr mutable ""
par Net10.rte[5].port$o[0].channel typename "\"networks.Net10.C\""
par Net10.rte[5].port$o[0].channel disabled false
attr mutable ""
par Net10.rte[5].port$o[0].channel delay 0.000980401s
attr mutable ""
attr unit s
par Net10.rte[5].port$o[0].channel datarate 1e+06bps
attr mutable ""
attr unit bps
par Net10.rte[5].port$o[0].channel ber 0
attr mutable ""
par Net10.rte[5].port$o[0].channel per 0
attr mutable ""
par Net10.rte[5].port$o[1].channel typename "\"networks.Net10.C\""
par Net10.rte[5].port$o[1].channel disabled false
attr mutable ""
par Net10.rte[5].port$o[1].channel delay 0.000751119s
attr mutable ""
attr unit s
par Net10.rte[5].port$o[1].channel datarate 1e+06bps
attr mutable ""
attr unit bps
par Net10.rte[5].port$o[1].channel ber 0
attr mutable ""
par Net10.rte[5].port$o[1].channel per 0
attr mutable ""
par Net10.rte[7].port$o[0].channel typename "\"networks.Net10.C\""
par Net10.rte[7].port$o[0].channel disabled false
attr mutable ""
par Net10.rte[7].port$o[0].channel delay 0.000510026s
attr mutable ""
attr unit s
par Net10.rte[7].port$o[0].channel datarate 1e+06bps
attr mutable ""
attr unit bps
par Net10.rte[7].port$o[0].channel ber 0
attr mutable ""
par Net10.rte[7].port$o[0].channel per 0
attr mutable ""
par Net10.rte[7].port$o[1].channel typename "\"networks.Net10.C\""
par Net10.rte[7].port$o[1].channel disabled false
attr mutable ""
par Net10.rte[7].port$o[1].channel delay 0.000980191s
attr mutable ""
attr unit s
par Net10.rte[7].port$o[1].channel datarate 1e+06bps
attr mutable ""
attr unit bps
par Net10.rte[7].port$o[1].channel ber 0
attr mutable ""
par Net10.rte[7].port$o[1].channel per 0
attr mutable ""
par Net10.rte[9].port$o[0].channel typename "\"networks.Net10.C\""
par Net10.rte[9].port$o[0].channel disabled false
attr mutable ""
par Net10.rte[9].port$o[0].channel delay 0.000377211s
attr mutable ""
attr unit s
par Net10.rte[9].port$o[0].channel datarate 1e+06bps
attr mutable ""
attr unit bps
par Net10.rte[9].port$o[0].channel ber 0
attr mutable ""
par Net10.rte[9].port$o[0].channel per 0
attr mutable ""
par Net10.rte[9].port$o[1].channel typename "\"networks.Net10.C\""
par Net10.rte[9].port$o[1].channel disabled false
attr mutable ""
par Net10.rte[9].port$o[1].channel delay 0.000584646s
attr mutable ""
attr unit s
par Net10.rte[9].port$o[1].channel datarate 1e+06bps
attr mutable ""
attr unit bps
par Net10.rte[9].port$o[1].channel ber 0
attr mutable ""
par Net10.rte[9].port$o[1].channel per 0
attr mutable ""
par Net10.rte[8].port$o[0].channel typename "\"networks.Net10.C\""
par Net10.rte[8].port$o[0].channel disabled false
attr mutable ""
par Net10.rte[8].port$o[0].channel delay 0.000337484s
attr mutable ""
attr unit s
par Net10.rte[8].port$o[0].channel datarate 1e+06bps
attr mutable ""
attr unit bps
par Net10.rte[8].port$o[0].channel ber 0
attr mutable ""
par Net10.rte[8].port$o[0].channel per 0
attr mutable ""
par Net10.rte[8].port$o[1].channel typename "\"networks.Net10.C\""
par Net10.rte[8].port$o[1].channel disabled false
attr mutable ""
par Net10.rte[8].port$o[1].channel delay 0.000551008s
attr mutable ""
attr unit s
par Net10.rte[8].port$o[1].channel datarate 1e+06bps
attr mutable ""
attr unit bps
par Net10.rte[8].port$o[1].channel ber 0
attr mutable ""
par Net10.rte[8].port$o[1].channel per 0
attr mutable ""
par Net10.rte[4].port$o[0].channel typename "\"networks.Net10.C\""
par Net10.rte[4].port$o[0].channel disabled false
attr mutable ""
par Net10.rte[4].port$o[0].channel delay 0.000178069s
attr mutable ""
attr unit s
par Net10.rte[4].port$o[0].channel datarate 1e+06bps
attr mutable ""
attr unit bps
par Net10.rte[4].port$o[0].channel ber 0
attr mutable ""
par Net10.rte[4].port$o[0].channel per 0
attr mutable ""
par Net10.rte[4].port$o[1].channel typename "\"networks.Net10.C\""
par Net10.rte[4].port$o[1].channel disabled false
attr mutable ""
par Net10.rte[4].port$o[1].channel delay 0.000164846s
attr mutable ""
attr unit s
par Net10.rte[4].port$o[1].channel datarate 1e+06bps
attr mutable ""
attr unit bps
par Net10.rte[4].port$o[1].channel ber 0
attr mutable ""
par Net10.rte[4].port$o[1].channel per 0
attr mutable ""
par Net10.rte[3].port$o[0].channel typename "\"networks.Net10.C\""
par Net10.rte[3].port$o[0].channel disabled false
attr mutable ""
par Net10.rte[3].port$o[0].channel delay 0.000477435s
attr mutable ""
attr unit s
par Net10.rte[3].port$o[0].channel datarate 1e+06bps
attr mutable ""
attr unit bps
par Net10.rte[3].port$o[0].channel ber 0
attr mutable ""
par Net10.rte[3].port$o[0].channel per 0
attr mutable ""
par Net10.rte[3].port$o[1].channel typename "\"networks.Net10.C\""
par Net10.rte[3].port$o[1].channel disabled false
attr mutable ""
par Net10.rte[3].port$o[1].channel delay 0.000341595s
attr mutable ""
attr unit s
par Net10.rte[3].port$o[1].channel datarate 1e+06bps
attr mutable ""
attr unit bps
par Net10.rte[3].port$o[1].channel ber 0
attr mutable ""
par Net10.rte[3].port$o[1].channel per 0
attr mutable ""
par Net10.rte[1].port$o[1].channel typename "\"networks.Net10.C\""
par Net10.rte[1].port$o[1].channel disabled false
attr mutable ""
par Net10.rte[1].port$o[1].channel delay 0.000114319s
attr mutable ""
attr unit s
par Net10.rte[1].port$o[1].channel datarate 1e+06bps
attr mutable ""
attr unit bps
par Net10.rte[1].port$o[1].channel ber 0
attr mutable ""
par Net10.rte[1].port$o[1].channel per 0
attr mutable ""
par Net10.rte[3].port$o[2].channel typename "\"networks.Net10.C\""
par Net10.rte[3].port$o[2].channel disabled false
attr mutable ""
par Net10.rte[3].port$o[2].channel delay 0.000549894s
attr mutable ""
attr unit s
par Net10.rte[3].port$o[2].channel datarate 1e+06bps
attr mutable ""
attr unit bps
par Net10.rte[3].port$o[2].channel ber 0
attr mutable ""
par Net10.rte[3].port$o[2].channel per 0
attr mutable ""
par Net10.rte[2].port$o[2].channel typename "\"networks.Net10.C\""
par Net10.rte[2].port$o[2].channel disabled false
attr mutable ""
par Net10.rte[2].port$o[2].channel delay 0.000574988s
attr mutable ""
attr unit s
par Net10.rte[2].port$o[2].channel datarate 1e+06bps
attr mutable ""
attr unit bps
par Net10.rte[2].port$o[2].channel ber 0
attr mutable ""
par Net10.rte[2].port$o[2].channel per 0
attr mutable ""
par Net10.rte[2].port$o[3].channel typename "\"networks.Net10.C\""
par Net10.rte[2].port$o[3].channel disabled false
attr mutable ""
par Net10.rte[2].port$o[3].channel delay 0.000711307s
attr mutable ""
attr unit s
par Net10.rte[2].port$o[3].channel datarate 1e+06bps
attr mutable ""
attr unit bps
par Net10.rte[2].port$o[3].channel ber 0
attr mutable ""
par Net10.rte[2].port$o[3].channel per 0
attr mutable ""
par Net10.rte[4].port$o[2].channel typename "\"networks.Net10.C\""
par Net10.rte[4].port$o[2].channel disabled false
attr mutable ""
par Net10.rte[4].port$o[2].channel delay 0.000881921s
attr mutable ""
attr unit s
par Net10.rte[4].port$o[2].channel datarate 1e+06bps
attr mutable ""
attr unit bps
par Net10.rte[4].port$o[2].channel ber 0
attr mutable ""
par Net10.rte[4].port$o[2].channel per 0
attr mutable ""
par Net10.rte[4].port$o[3].channel typename "\"networks.Net10.C\""
par Net10.rte[4].port$o[3].channel disabled false
attr mutable ""
par Net10.rte[4].port$o[3].channel delay 0.000823365s
attr mutable ""
attr unit s
par Net10.rte[4].port$o[3].channel datarate 1e+06bps
attr mutable ""
attr unit bps
par Net10.rte[4].port$o[3].channel ber 0
attr mutable ""
par Net10.rte[4].port$o[3].channel per 0
attr mutable ""
par Net10.rte[6].port$o[0].channel typename "\"networks.Net10.C\""
par Net10.rte[6].port$o[0].channel disabled false
attr mutable ""
par Net10.rte[6].port$o[0].channel delay 0.000397755s
attr mutable ""
attr unit s
par Net10.rte[6].port$o[0].channel datarate 1e+06bps
attr mutable ""
attr unit bps
par Net10.rte[6].port$o[0].channel ber 0
attr mutable ""
par Net10.rte[6].port$o[0].channel per 0
attr mutable ""
par Net10.rte[6].port$o[1].channel typename "\"networks.Net10.C\""
par Net10.rte[6].port$o[1].channel disabled false
attr mutable ""
par Net10.rte[6].port$o[1].channel delay 0.000442847s
attr mutable ""
attr unit s
par Net10.rte[6].port$o[1].channel datarate 1e+06bps
attr mutable ""
attr unit bps
par Net10.rte[6].port$o[1].channel ber 0
attr mutable ""
par Net10.rte[6].port$o[1].channel per 0
attr mutable ""
par Net10.rte[8].port$o[2].channel typename "\"networks.Net10.C\""
par Net10.rte[8].port$o[2].channel disabled false
attr mutable ""
par Net10.rte[8].port$o[2].channel delay 0.000453648s
attr mutable ""
attr unit s
par Net10.rte[8].port$o[2].channel datarate 1e+06bps
attr mutable ""
attr unit bps
par Net10.rte[8].port$o[2].channel ber 0
attr mutable ""
par Net10.rte[8].port$o[2].channel per 0
attr mutable ""
par Net10.rte[9].port$o[2].channel typename "\"networks.Net10.C\""
par Net10.rte[9].port$o[2].channel disabled false
attr mutable ""
par Net10.rte[9].port$o[2].channel delay 0.000159343s
attr mutable ""
attr unit s
par Net10.rte[9].port$o[2].channel datarate 1e+06bps
attr mutable ""
attr unit bps
par Net10.rte[9].port$o[2].channel ber 0
attr mutable ""
par Net10.rte[9].port$o[2].channel per 0
attr mutable ""
par Net10.rte[6].port$o[2].channel typename "\"networks.Net10.C\""
par Net10.rte[6].port$o[2].channel disabled false
attr mutable ""
par Net10.rte[6].port$o[2].channel delay 0.000706897s
attr mutable ""
attr unit s
par Net10.rte[6].port$o[2].channel datarate 1e+06bps
attr mutable ""
attr unit bps
par Net10.rte[6].port$o[2].channel ber 0
attr mutable ""
par Net10.rte[6].port$o[2].channel per 0
attr mutable ""
par Net10.rte[6].port$o[3].channel typename "\"networks.Net10.C\""
par Net10.rte[6].port$o[3].channel disabled false
attr mutable ""
par Net10.rte[6].port$o[3].channel delay 0.000359331s
attr mutable ""
attr unit s
par Net10.rte[6].port$o[3].channel datarate 1e+06bps
attr mutable ""
attr unit bps
par Net10.rte[6].port$o[3].channel ber 0
attr mutable ""
par Net10.rte[6].port$o[3].channel per 0
attr mutable ""
par Net10.rte[7].port$o[2].channel typename "\"networks.Net10.C\""
par Net10.rte[7].port$o[2].channel disabled false
attr mutable ""
par Net10.rte[7].port$o[2].channel delay 0.000705086s
attr mutable ""
attr unit s
par Net10.rte[7].port$o[2].channel datarate 1e+06bps
attr mutable ""
attr unit bps
par Net10.rte[7].port$o[2].channel ber 0
attr mutable ""
par Net10.rte[7].port$o[2].channel per 0
attr mutable ""
par Net10.rte[5].port$o[2].channel typename "\"networks.Net10.C\""
par Net10.rte[5].port$o[2].channel disabled false
attr mutable ""
par Net10.rte[5].port$o[2].channel delay 0.000918634s
attr mutable ""
attr unit s
par Net10.rte[5].port$o[2].channel datarate 1e+06bps
attr mutable ""
attr unit bps
par Net10.rte[5].port$o[2].channel ber 0
attr mutable ""
par Net10.rte[5].port$o[2].channel per 0
attr mutable ""
par Net10.rte[6].port$o[4].channel typename "\"networks.Net10.C\""
par Net10.rte[6].port$o[4].channel disabled false
attr mutable ""
par Net10.rte[6].port$o[4].channel delay 0.000724628s
attr mutable ""
attr unit s
par Net10.rte[6].port$o[4].channel datarate 1e+06bps
attr mutable ""
attr unit bps
par Net10.rte[6].port$o[4].channel ber 0
attr mutable ""
par Net10.rte[6].port$o[4].channel per 0
attr mutable ""
par Net10.rte[0].port$o[2].channel typename "\"networks.Net10.C\""
par Net10.rte[0].port$o[2].channel disabled false
attr mutable ""
par Net10.rte[0].port$o[2].channel delay 0.000292047s
attr mutable ""
attr unit s
par Net10.rte[0].port$o[2].channel datarate 1e+06bps
attr mutable ""
attr unit bps
par Net10.rte[0].port$o[2].channel ber 0
attr mutable ""
par Net10.rte[0].port$o[2].channel per 0
attr mutable ""
par Net10.rte[5].port$o[3].channel typename "\"networks.Net10.C\""
par Net10.rte[5].port$o[3].channel disabled false
attr mutable ""
par Net10.rte[5].port$o[3].channel delay 0.000411376s
attr mutable ""
attr unit s
par Net10.rte[5].port$o[3].channel datarate 1e+06bps
attr mutable ""
attr unit bps
par Net10.rte[5].port$o[3].channel ber 0
attr mutable ""
par Net10.rte[5].port$o[3].channel per 0
attr mutable ""
par Net10.rte[1].port$o[2].channel typename "\"networks.Net10.C\""
par Net10.rte[1].port$o[2].channel disabled false
attr mutable ""
par Net10.rte[1].port$o[2].channel delay 0.000506912s
attr mutable ""
attr unit s
par Net10.rte[1].port$o[2].channel datarate 1e+06bps
attr mutable ""
attr unit bps
par Net10.rte[1].port$o[2].channel ber 0
attr mutable ""
par Net10.rte[1].port$o[2].channel per 0
attr mutable ""
par Net10.rte[2].port$o[4].channel typename "\"networks.Net10.C\""
par Net10.rte[2].port$o[4].channel disabled false
attr mutable ""
par Net10.rte[2].port$o[4].channel delay 0.000936575s
attr mutable ""
attr unit s
par Net10.rte[2].port$o[4].channel datarate 1e+06bps
attr mutable ""
attr unit bps
par Net10.rte[2].port$o[4].channel ber 0
attr mutable ""
par Net10.rte[2].port$o[4].channel per 0
attr mutable ""
par Net10.rte[0].app typename "\"node.App\""
par Net10.rte[0].app address 0
par Net10.rte[0].app destAddresses "\"1\""
par Net10.rte[0].app sendIaTime exponential(200ms)
attr unit s
par Net10.rte[0].app packetLength 4096byte
attr unit byte
scalar Net10.rte[0].app hopCount:mean -nan
attr interpolationmode none
attr recordingmode mean
attr title "hop count of arrived packets, mean"
scalar Net10.rte[0].app hopCount:max -nan
attr interpolationmode none
attr recordingmode max
attr title "hop count of arrived packets, max"
scalar Net10.rte[0].app endToEndDelay:mean -nan
attr interpolationmode none
attr recordingmode mean
attr title "end-to-end delay of arrived packets, mean"
attr unit s
scalar Net10.rte[0].app endToEndDelay:max -nan
attr interpolationmode none
attr recordingmode max
attr title "end-to-end delay of arrived packets, max"
attr unit s
par Net10.rte[0].routing typename "\"node.Routing\""
statistic Net10.rte[0].routing outputIf:histogram
field count 30102
field mean 0
field stddev 0
field min 0
field max 0
field sum 0
field sqrsum 0
attr interpolationmode none
attr recordingmode histogram
attr title "output interface for each routed packet"
bin	-inf	0
bin	-0.5	0
bin	-0.48	0
bin	-0.46	0
bin	-0.44	0
bin	-0.42	0
bin	-0.4	0
bin	-0.38	0
bin	-0.36	0
bin	-0.34	0
bin	-0.32	0
bin	-0.3	0
bin	-0.28	0
bin	-0.26	0
bin	-0.24	0
bin	-0.22	0
bin	-0.2	0
bin	-0.18	0
bin	-0.16	0
bin	-0.14	0
bin	-0.12	0
bin	-0.1	0
bin	-0.08	0
bin	-0.06	0
bin	-0.04	0
bin	-0.02	0
bin	0	30102
bin	0.02	0
bin	0.04	0
bin	0.06	0
bin	0.08	0
bin	0.1	0
bin	0.12	0
bin	0.14	0
bin	0.16	0
bin	0.18	0
bin	0.2	0
bin	0.22	0
bin	0.24	0
bin	0.26	0
bin	0.28	0
bin	0.3	0
bin	0.32	0
bin	0.34	0
bin	0.36	0
bin	0.38	0
bin	0.4	0
bin	0.42	0
bin	0.44	0
bin	0.46	0
bin	0.48	0
bin	0.5	0
scalar Net10.rte[0].routing drop:count 0
attr interpolationmode none
attr recordingmode count
attr title "dropped packet byte length, count"
attr unit bytes
scalar Net10.rte[0].routing drop:sum 0
attr interpolationmode none
attr recordingmode sum
attr title "dropped packet byte length, sum"
attr unit bytes
par Net10.rte[0].queue[0] typename "\"node.L2Queue\""
par Net10.rte[0].queue[0] frameCapacity 100
par Net10.rte[0].queue[0] useCutThroughSwitching true
scalar Net10.rte[0].queue[0] rxBytes:count 0
attr interpolationmode none
attr recordingmode count
attr title "received packet byte length, count"
attr unit bytes
scalar Net10.rte[0].queue[0] rxBytes:sum 0
attr interpolationmode none
attr recordingmode sum
attr title "received packet byte length, sum"
attr unit bytes
statistic Net10.rte[0].queue[0] rxBytes:histogram
field count 0
field mean -nan
field stddev -nan
field min -nan
field max -nan
field sum 0
field sqrsum 0
attr interpolationmode none
attr recordingmode histogram
attr title "received packet byte length"
attr unit bytes
bin	-inf	0
bin	0	0
bin	1	0
scalar Net10.rte[0].queue[0] txBytes:count 30102
attr interpolationmode none
attr recordingmode count
attr title "transmitting packet byte length, count"
attr unit bytes
scalar Net10.rte[0].queue[0] txBytes:sum 123297792
attr interpolationmode none
attr recordingmode sum
attr title "transmitting packet byte length, sum"
attr unit bytes
statistic Net10.rte[0].queue[0] txBytes:histogram
field count 30102
field mean 4096
field stddev 0
field min 4096
field max 4096
field sum 123297792
field sqrsum 505027756032
attr interpolationmode none
attr recordingmode histogram
attr title "transmitting packet byte length"
attr unit bytes
bin	-inf	0
bin	4095	0
bin	4096	30102
bin	4097	0
scalar Net10.rte[0].queue[0] busy:timeavg 0.82197234319696
attr interpolationmode sample-hold
attr recordingmode timeavg
attr title "server busy state, timeavg"
scalar Net10.rte[0].queue[0] qlen:timeavg 1.193827103657
attr interpolationmode sample-hold
attr recordingmode timeavg
attr title "queue length, timeavg"
scalar Net10.rte[0].queue[0] qlen:max 19
attr interpolationmode sample-hold
attr recordingmode max
attr title "queue length, max"
scalar Net10.rte[0].queue[0] drop:count 0
attr interpolationmode none
attr recordingmode count
attr title "dropped packet byte length, count"
attr unit bytes
scalar Net10.rte[0].queue[0] drop:sum 0
attr interpolationmode none
attr recordingmode sum
attr title "dropped packet byte length, sum"
attr unit bytes
par Net10.rte[0].queue[1] typename "\"node.L2Queue\""
par Net10.rte[0].queue[1] frameCapacity 100
par Net10.rte[0].queue[1] useCutThroughSwitching true
scalar Net10.rte[0].queue[1] rxBytes:count 0
attr interpolationmode none
attr recordingmode count
attr title "received packet byte length, count"
attr unit bytes
scalar Net10.rte[0].queue[1] rxBytes:sum 0
attr interpolationmode none
attr recordingmode sum
attr title "received packet byte length, sum"
attr unit bytes
statistic Net10.rte[0].queue[1] rxBytes:histogram
field count 0
field mean -nan
field stddev -nan
field min -nan
field max -nan
field sum 0
field sqrsum 0
attr interpolationmode none
attr recordingmode histogram
attr title "received packet byte length"
attr unit bytes
bin	-inf	0
bin	0	0
bin	1	0
scalar Net10.rte[0].queue[1] txBytes:count 0
attr interpolationmode none
attr recordingmode count
attr title "transmitting packet byte length, count"
attr unit bytes
scalar Net10.rte[0].queue[1] txBytes:sum 0
attr interpolationmode none
attr recordingmode sum
attr title "transmitting packet byte length, sum"
attr unit bytes
statistic Net10.rte[0].queue[1] txBytes:histogram
field count 0
field mean -nan
field stddev -nan
field min -nan
field max -nan
field sum 0
field sqrsum 0
attr interpolationmode none
attr recordingmode histogram
attr title "transmitting packet byte length"
attr unit bytes
bin	-inf	0
bin	0	0
bin	1	0
scalar Net10.rte[0].queue[1] busy:timeavg 0
attr interpolationmode sample-hold
attr recordingmode timeavg
attr title "server busy state, timeavg"
scalar Net10.rte[0].queue[1] qlen:timeavg 0
attr interpolationmode sample-hold
attr recordingmode timeavg
attr title "queue length, timeavg"
scalar Net10.rte[0].queue[1] qlen:max 0
attr interpolationmode sample-hold
attr recordingmode max
attr title "queue length, max"
scalar Net10.rte[0].queue[1] drop:count 0
attr interpolationmode none
attr recordingmode count
attr title "dropped packet byte length, count"
attr unit bytes
scalar Net10.rte[0].queue[1] drop:sum 0
attr interpolationmode none
attr recordingmode sum
attr title "dropped packet byte length, sum"
attr unit bytes
par Net10.rte[0].queue[2] typename "\"node.L2Queue\""
par Net10.rte[0].queue[2] frameCapacity 100
par Net10.rte[0].queue[2] useCutThroughSwitching true
scalar Net10.rte[0].queue[2] rxBytes:count 24181
attr interpolationmode none
attr recordingmode count
attr title "received packet byte length, count"
attr unit bytes
scalar Net10.rte[0].queue[2] rxBytes:sum 99045376
attr interpolationmode none
attr recordingmode sum
attr title "received packet byte length, sum"
attr unit bytes
statistic Net10.rte[0].queue[2] rxBytes:histogram
field count 24181
field mean 4096
field stddev 0
field min 4096
field max 4096
field sum 99045376
field sqrsum 405689860096
attr interpolationmode none
attr recordingmode histogram
attr title "received packet byte length"
attr unit bytes
bin	-inf	0
bin	4095	0
bin	4096	24181
bin	4097	0
scalar Net10.rte[0].queue[2] txBytes:count 0
attr interpolationmode none
attr recordingmode count
attr title "transmitting packet byte length, count"
attr unit bytes
scalar Net10.rte[0].queue[2] txBytes:sum 0
attr interpolationmode none
attr recordingmode sum
attr title "transmitting packet byte length, sum"
attr unit bytes
statistic Net10.rte[0].queue[2] txBytes:histogram
field count 0
field mean -nan
field stddev -nan
field min -nan
field max -nan
field sum 0
field sqrsum 0
attr interpolationmode none
attr recordingmode histogram
attr title "transmitting packet byte length"
attr unit bytes
bin	-inf	0
bin	0	0
bin	1	0
scalar Net10.rte[0].queue[2] busy:timeavg 0
attr interpolationmode sample-hold
attr recordingmode timeavg
attr title "server busy state, timeavg"
scalar Net10.rte[0].queue[2] qlen:timeavg 0
attr interpolationmode sample-hold
attr recordingmode timeavg
attr title "queue length, timeavg"
scalar Net10.rte[0].queue[2] qlen:max 0
attr interpolationmode sample-hold
attr recordingmode max
attr title "queue length, max"
scalar Net10.rte[0].queue[2] drop:count 0
attr interpolationmode none
attr recordingmode count
attr title "dropped packet byte length, count"
attr unit bytes
scalar Net10.rte[0].queue[2] drop:sum 0
attr interpolationmode none
attr recordingmode sum
attr title "dropped packet byte length, sum"
attr unit bytes
par Net10.rte[0] typename "\"node.Node\""
par Net10.rte[0] address 0
par Net10.rte[0] appType "\"App\""
par Net10.rte[1].app typename "\"node.App\""
par Net10.rte[1].app address 1
par Net10.rte[1].app destAddresses "\"1\""
par Net10.rte[1].app sendIaTime exponential(200ms)
attr unit s
par Net10.rte[1].app packetLength 4096byte
attr unit byte
scalar Net10.rte[1].app hopCount:mean 2.0033842631762
attr interpolationmode none
attr recordingmode mean
attr title "hop count of arrived packets, mean"
scalar Net10.rte[1].app hopCount:max 4
attr interpolationmode none
attr recordingmode max
attr title "hop count of arrived packets, max"
scalar Net10.rte[1].app endToEndDelay:mean 0.042333581608707
attr interpolationmode none
attr recordingmode mean
attr title "end-to-end delay of arrived packets, mean"
attr unit s
scalar Net10.rte[1].app endToEndDelay:max 0.682040050502
attr interpolationmode none
attr recordingmode max
attr title "end-to-end delay of arrived packets, max"
attr unit s
par Net10.rte[1].routing typename "\"node.Routing\""
statistic Net10.rte[1].routing outputIf:histogram
field count 60279
field mean -1
field stddev 0
field min -1
field max -1
field sum -60279
field sqrsum 60279
attr interpolationmode none
attr recordingmode histogram
attr title "output interface for each routed packet"
bin	-inf	0
bin	-2	0
bin	-1	60279
bin	0	0
scalar Net10.rte[1].routing drop:count 0
attr interpolationmode none
attr recordingmode count
attr title "dropped packet byte length, count"
attr unit bytes
scalar Net10.rte[1].routing drop:sum 0
attr interpolationmode none
attr recordingmode sum
attr title "dropped packet byte length, sum"
attr unit bytes
par Net10.rte[1].queue[0] typename "\"node.L2Queue\""
par Net10.rte[1].queue[0] frameCapacity 100
par Net10.rte[1].queue[0] useCutThroughSwitching true
scalar Net10.rte[1].queue[0] rxBytes:count 30102
attr interpolationmode none
attr recordingmode count
attr title "received packet byte length, count"
attr unit bytes
scalar Net10.rte[1].queue[0] rxBytes:sum 123297792
attr interpolationmode none
attr recordingmode sum
attr title "received packet byte length, sum"
attr unit bytes
statistic Net10.rte[1].queue[0] rxBytes:histogram
field count 30102
field mean 4096
field stddev 0
field min 4096
field max 4096
field sum 123297792
field sqrsum 505027756032
attr interpolationmode none
attr recordingmode histogram
attr title "received packet byte length"
attr unit bytes
bin	-inf	0
bin	4095	0
bin	4096	30102
bin	4097	0
scalar Net10.rte[1].queue[0] txBytes:count 0
attr interpolationmode none
attr recordingmode count
attr title "transmitting packet byte length, count"
attr unit bytes
scalar Net10.rte[1].queue[0] txBytes:sum 0
attr interpolationmode none
attr recordingmode sum
attr title "transmitting packet byte length, sum"
attr unit bytes
statistic Net10.rte[1].queue[0] txBytes:histogram
field count 0
field mean -nan
field stddev -nan
field min -nan
field max -nan
field sum 0
field sqrsum 0
attr interpolationmode none
attr recordingmode histogram
attr title "transmitting packet byte length"
attr unit bytes
bin	-inf	0
bin	0	0
bin	1	0
scalar Net10.rte[1].queue[0] busy:timeavg 0
attr interpolationmode sample-hold
attr recordingmode timeavg
attr title "server busy state, timeavg"
scalar Net10.rte[1].queue[0] qlen:timeavg 0
attr interpolationmode sample-hold
attr recordingmode timeavg
attr title "queue length, timeavg"
scalar Net10.rte[1].queue[0] qlen:max 0
attr interpolationmode sample-hold
attr recordingmode max
attr title "queue length, max"
scalar Net10.rte[1].queue[0] drop:count 0
attr interpolationmode none
attr recordingmode count
attr title "dropped packet byte length, count"
attr unit bytes
scalar Net10.rte[1].queue[0] drop:sum 0
attr interpolationmode none
attr recordingmode sum
attr title "dropped packet byte length, sum"
attr unit bytes
par Net10.rte[1].queue[1] typename "\"node.L2Queue\""
par Net10.rte[1].queue[1] frameCapacity 100
par Net10.rte[1].queue[1] useCutThroughSwitching true
scalar Net10.rte[1].queue[1] rxBytes:count 6072
attr interpolationmode none
attr recordingmode count
attr title "received packet byte length, count"
attr unit bytes
scalar Net10.rte[1].queue[1] rxBytes:sum 24870912
attr interpolationmode none
attr recordingmode sum
attr title "received packet byte length, sum"
attr unit bytes
statistic Net10.rte[1].queue[1] rxBytes:histogram
field count 6072
field mean 4096
field stddev 0
field min 4096
field max 4096
field sum 24870912
field sqrsum 101871255552
attr interpolationmode none
attr recordingmode histogram
attr title "received packet byte length"
attr unit bytes
bin	-inf	0
bin	4095	0
bin	4096	6072
bin	4097	0
scalar Net10.rte[1].queue[1] txBytes:count 0
attr interpolationmode none
attr recordingmode count
attr title "transmitting packet byte length, count"
attr unit bytes
scalar Net10.rte[1].queue[1] txBytes:sum 0
attr interpolationmode none
attr recordingmode sum
attr title "transmitting packet byte length, sum"
attr unit bytes
statistic Net10.rte[1].queue[1] txBytes:histogram
field count 0
field mean -nan
field stddev -nan
field min -nan
field max -nan
field sum 0
field sqrsum 0
attr interpolationmode none
attr recordingmode histogram
attr title "transmitting packet byte length"
attr unit bytes
bin	-inf	0
bin	0	0
bin	1	0
scalar Net10.rte[1].queue[1] busy:timeavg 0
attr interpolationmode sample-hold
attr recordingmode timeavg
attr title "server busy state, timeavg"
scalar Net10.rte[1].queue[1] qlen:timeavg 0
attr interpolationmode sample-hold
attr recordingmode timeavg
attr title "queue length, timeavg"
scalar Net10.rte[1].queue[1] qlen:max 0
attr interpolationmode sample-hold
attr recordingmode max
attr title "queue length, max"
scalar Net10.rte[1].queue[1] drop:count 0
attr interpolationmode none
attr recordingmode count
attr title "dropped packet byte length, count"
attr unit bytes
scalar Net10.rte[1].queue[1] drop:sum 0
attr interpolationmode none
attr recordingmode sum
attr title "dropped packet byte length, sum"
attr unit bytes
par Net10.rte[1].queue[2] typename "\"node.L2Queue\""
par Net10.rte[1].queue[2] frameCapacity 100
par Net10.rte[1].queue[2] useCutThroughSwitching true
scalar Net10.rte[1].queue[2] rxBytes:count 18076
attr interpolationmode none
attr recordingmode count
attr title "received packet byte length, count"
attr unit bytes
scalar Net10.rte[1].queue[2] rxBytes:sum 74039296
attr interpolationmode none
attr recordingmode sum
attr title "received packet byte length, sum"
attr unit bytes
statistic Net10.rte[1].queue[2] rxBytes:histogram
field count 18076
field mean 4096
field stddev 0
field min 4096
field max 4096
field sum 74039296
field sqrsum 303264956416
attr interpolationmode none
attr recordingmode histogram
attr title "received packet byte length"
attr unit bytes
bin	-inf	0
bin	4095	0
bin	4096	18076
bin	4097	0
scalar Net10.rte[1].queue[2] txBytes:count 0
attr interpolationmode none
attr recordingmode count
attr title "transmitting packet byte length, count"
attr unit bytes
scalar Net10.rte[1].queue[2] txBytes:sum 0
attr interpolationmode none
attr recordingmode sum
attr title "transmitting packet byte length, sum"
attr unit bytes
statistic Net10.rte[1].queue[2] txBytes:histogram
field count 0
field mean -nan
field stddev -nan
field min -nan
field max -nan
field sum 0
field sqrsum 0
attr interpolationmode none
attr recordingmode histogram
attr title "transmitting packet byte length"
attr unit bytes
bin	-inf	0
bin	0	0
bin	1	0
scalar Net10.rte[1].queue[2] busy:timeavg 0
attr interpolationmode sample-hold
attr recordingmode timeavg
attr title "server busy state, timeavg"
scalar Net10.rte[1].queue[2] qlen:timeavg 0
attr interpolationmode sample-hold
attr recordingmode timeavg
attr title "queue length, timeavg"
scalar Net10.rte[1].queue[2] qlen:max 0
attr interpolationmode sample-hold
attr recordingmode max
attr title "queue length, max"
scalar Net10.rte[1].queue[2] drop:count 0
attr interpolationmode none
attr recordingmode count
attr title "dropped packet byte length, count"
attr unit bytes
scalar Net10.rte[1].queue[2] drop:sum 0
attr interpolationmode none
attr recordingmode sum
attr title "dropped packet byte length, sum"
attr unit bytes
par Net10.rte[1] typename "\"node.Node\""
par Net10.rte[1] address 1
par Net10.rte[1] appType "\"App\""
par Net10.rte[2].app typename "\"node.App\""
par Net10.rte[2].app address 2
par Net10.rte[2].app destAddresses "\"1\""
par Net10.rte[2].app sendIaTime exponential(200ms)
attr unit s
par Net10.rte[2].app packetLength 4096byte
attr unit byte
scalar Net10.rte[2].app hopCount:mean -nan
attr interpolationmode none
attr recordingmode mean
attr title "hop count of arrived packets, mean"
scalar Net10.rte[2].app hopCount:max -nan
attr interpolationmode none
attr recordingmode max
attr title "hop count of arrived packets, max"
scalar Net10.rte[2].app endToEndDelay:mean -nan
attr interpolationmode none
attr recordingmode mean
attr title "end-to-end delay of arrived packets, mean"
attr unit s
scalar Net10.rte[2].app endToEndDelay:max -nan
attr interpolationmode none
attr recordingmode max
attr title "end-to-end delay of arrived packets, max"
attr unit s
par Net10.rte[2].routing typename "\"node.Routing\""
statistic Net10.rte[2].routing outputIf:histogram
field count 18076
field mean 4
field stddev 0
field min 4
field max 4
field sum 72304
field sqrsum 289216
attr interpolationmode none
attr recordingmode histogram
attr title "output interface for each routed packet"
bin	-inf	0
bin	3	0
bin	4	18076
bin	5	0
scalar Net10.rte[2].routing drop:count 0
attr interpolationmode none
attr recordingmode count
attr title "dropped packet byte length, count"
attr unit bytes
scalar Net10.rte[2].routing drop:sum 0
attr interpolationmode none
attr recordingmode sum
attr title "dropped packet byte length, sum"
attr unit bytes
par Net10.rte[2].queue[0] typename "\"node.L2Queue\""
par Net10.rte[2].queue[0] frameCapacity 100
par Net10.rte[2].queue[0] useCutThroughSwitching true
scalar Net10.rte[2].queue[0] rxBytes:count 0
attr interpolationmode none
attr recordingmode count
attr title "received packet byte length, count"
attr unit bytes
scalar Net10.rte[2].queue[0] rxBytes:sum 0
attr interpolationmode none
attr recordingmode sum
attr title "received packet byte length, sum"
attr unit bytes
statistic Net10.rte[2].queue[0] rxBytes:histogram
field count 0
field mean -nan
field stddev -nan
field min -nan
field max -nan
field sum 0
field sqrsum 0
attr interpolationmode none
attr recordingmode histogram
attr title "received packet byte length"
attr unit bytes
bin	-inf	0
bin	0	0
bin	1	0
scalar Net10.rte[2].queue[0] txBytes:count 0
attr interpolationmode none
attr recordingmode count
attr title "transmitting packet byte length, count"
attr unit bytes
scalar Net10.rte[2].queue[0] txBytes:sum 0
attr interpolationmode none
attr recordingmode sum
attr title "transmitting packet byte length, sum"
attr unit bytes
statistic Net10.rte[2].queue[0] txBytes:histogram
field count 0
field mean -nan
field stddev -nan
field min -nan
field max -nan
field sum 0
field sqrsum 0
attr interpolationmode none
attr recordingmode histogram
attr title "transmitting packet byte length"
attr unit bytes
bin	-inf	0
bin	0	0
bin	1	0
scalar Net10.rte[2].queue[0] busy:timeavg 0
attr interpolationmode sample-hold
attr recordingmode timeavg
attr title "server busy state, timeavg"
scalar Net10.rte[2].queue[0] qlen:timeavg 0
attr interpolationmode sample-hold
attr recordingmode timeavg
attr title "queue length, timeavg"
scalar Net10.rte[2].queue[0] qlen:max 0
attr interpolationmode sample-hold
attr recordingmode max
attr title "queue length, max"
scalar Net10.rte[2].queue[0] drop:count 0
attr interpolationmode none
attr recordingmode count
attr title "dropped packet byte length, count"
attr unit bytes
scalar Net10.rte[2].queue[0] drop:sum 0
attr interpolationmode none
attr recordingmode sum
attr title "dropped packet byte length, sum"
attr unit bytes
par Net10.rte[2].queue[1] typename "\"node.L2Queue\""
par Net10.rte[2].queue[1] frameCapacity 100
par Net10.rte[2].queue[1] useCutThroughSwitching true
scalar Net10.rte[2].queue[1] rxBytes:count 0
attr interpolationmode none
attr recordingmode count
attr title "received packet byte length, count"
attr unit bytes
scalar Net10.rte[2].queue[1] rxBytes:sum 0
attr interpolationmode none
attr recordingmode sum
attr title "received packet byte length, sum"
attr unit bytes
statistic Net10.rte[2].queue[1] rxBytes:histogram
field count 0
field mean -nan
field stddev -nan
field min -nan
field max -nan
field sum 0
field sqrsum 0
attr interpolationmode none
attr recordingmode histogram
attr title "received packet byte length"
attr unit bytes
bin	-inf	0
bin	0	0
bin	1	0
scalar Net10.rte[2].queue[1] txBytes:count 0
attr interpolationmode none
attr recordingmode count
attr title "transmitting packet byte length, count"
attr unit bytes
scalar Net10.rte[2].queue[1] txBytes:sum 0
attr interpolationmode none
attr recordingmode sum
attr title "transmitting packet byte length, sum"
attr unit bytes
statistic Net10.rte[2].queue[1] txBytes:histogram
field count 0
field mean -nan
field stddev -nan
field min -nan
field max -nan
field sum 0
field sqrsum 0
attr interpolationmode none
attr recordingmode histogram
attr title "transmitting packet byte length"
attr unit bytes
bin	-inf	0
bin	0	0
bin	1	0
scalar Net10.rte[2].queue[1] busy:timeavg 0
attr interpolationmode sample-hold
attr recordingmode timeavg
attr title "server busy state, timeavg"
scalar Net10.rte[2].queue[1] qlen:timeavg 0
attr interpolationmode sample-hold
attr recordingmode timeavg
attr title "queue length, timeavg"
scalar Net10.rte[2].queue[1] qlen:max 0
attr interpolationmode sample-hold
attr recordingmode max
attr title "queue length, max"
scalar Net10.rte[2].queue[1] drop:count 0
attr interpolationmode none
attr recordingmode count
attr title "dropped packet byte length, count"
attr unit bytes
scalar Net10.rte[2].queue[1] drop:sum 0
attr interpolationmode none
attr recordingmode sum
attr title "dropped packet byte length, sum"
attr unit bytes
par Net10.rte[2].queue[2] typename "\"node.L2Queue\""
par Net10.rte[2].queue[2] frameCapacity 100
par Net10.rte[2].queue[2] useCutThroughSwitching true
scalar Net10.rte[2].queue[2] rxBytes:count 0
attr interpolationmode none
attr recordingmode count
attr title "received packet byte length, count"
attr unit bytes
scalar Net10.rte[2].queue[2] rxBytes:sum 0
attr interpolationmode none
attr recordingmode sum
attr title "received packet byte length, sum"
attr unit bytes
statistic Net10.rte[2].queue[2] rxBytes:histogram
field count 0
field mean -nan
field stddev -nan
field min -nan
field max -nan
field sum 0
field sqrsum 0
attr interpolationmode none
attr recordingmode histogram
attr title "received packet byte length"
attr unit bytes
bin	-inf	0
bin	0	0
bin	1	0
scalar Net10.rte[2].queue[2] txBytes:count 0
attr interpolationmode none
attr recordingmode count
attr title "transmitting packet byte length, count"
attr unit bytes
scalar Net10.rte[2].queue[2] txBytes:sum 0
attr interpolationmode none
attr recordingmode sum
attr title "transmitting packet byte length, sum"
attr unit bytes
statistic Net10.rte[2].queue[2] txBytes:histogram
field count 0
field mean -nan
field stddev -nan
field min -nan
field max -nan
field sum 0
field sqrsum 0
attr interpolationmode none
attr recordingmode histogram
attr title "transmitting packet byte length"
attr unit bytes
bin	-inf	0
bin	0	0
bin	1	0
scalar Net10.rte[2].queue[2] busy:timeavg 0
attr interpolationmode sample-hold
attr recordingmode timeavg
attr title "server busy state, timeavg"
scalar Net10.rte[2].queue[2] qlen:timeavg 0
attr interpolationmode sample-hold
attr recordingmode timeavg
attr title "queue length, timeavg"
scalar Net10.rte[2].queue[2] qlen:max 0
attr interpolationmode sample-hold
attr recordingmode max
attr title "queue length, max"
scalar Net10.rte[2].queue[2] drop:count 0
attr interpolationmode none
attr recordingmode count
attr title "dropped packet byte length, count"
attr unit bytes
scalar Net10.rte[2].queue[2] drop:sum 0
attr interpolationmode none
attr recordingmode sum
attr title "dropped packet byte length, sum"
attr unit bytes
par Net10.rte[2].queue[3] typename "\"node.L2Queue\""
par Net10.rte[2].queue[3] frameCapacity 100
par Net10.rte[2].queue[3] useCutThroughSwitching true
scalar Net10.rte[2].queue[3] rxBytes:count 12104
attr interpolationmode none
attr recordingmode count
attr title "received packet byte length, count"
attr unit bytes
scalar Net10.rte[2].queue[3] rxBytes:sum 49577984
attr interpolationmode none
attr recordingmode sum
attr title "received packet byte length, sum"
attr unit bytes
statistic Net10.rte[2].queue[3] rxBytes:histogram
field count 12104
field mean 4096
field stddev 0
field min 4096
field max 4096
field sum 49577984
field sqrsum 203071422464
attr interpolationmode none
attr recordingmode histogram
attr title "received packet byte length"
attr unit bytes
bin	-inf	0
bin	4095	0
bin	4096	12104
bin	4097	0
scalar Net10.rte[2].queue[3] txBytes:count 0
attr interpolationmode none
attr recordingmode count
attr title "transmitting packet byte length, count"
attr unit bytes
scalar Net10.rte[2].queue[3] txBytes:sum 0
attr interpolationmode none
attr recordingmode sum
attr title "transmitting packet byte length, sum"
attr unit bytes
statistic Net10.rte[2].queue[3] txBytes:histogram
field count 0
field mean -nan
field stddev -nan
field min -nan
field max -nan
field sum 0
field sqrsum 0
attr interpolationmode none
attr recordingmode histogram
attr title "transmitting packet byte length"
attr unit bytes
bin	-inf	0
bin	0	0
bin	1	0
scalar Net10.rte[2].queue[3] busy:timeavg 0
attr interpolationmode sample-hold
attr recordingmode timeavg
attr title "server busy state, timeavg"
scalar Net10.rte[2].queue[3] qlen:timeavg 0
attr interpolationmode sample-hold
attr recordingmode timeavg
attr title "queue length, timeavg"
scalar Net10.rte[2].queue[3] qlen:max 0
attr interpolationmode sample-hold
attr recordingmode max
attr title "queue length, max"
scalar Net10.rte[2].queue[3] drop:count 0
attr interpolationmode none
attr recordingmode count
attr title "dropped packet byte length, count"
attr unit bytes
scalar Net10.rte[2].queue[3] drop:sum 0
attr interpolationmode none
attr recordingmode sum
attr title "dropped packet byte length, sum"
attr unit bytes
par Net10.rte[2].queue[4] typename "\"node.L2Queue\""
par Net10.rte[2].queue[4] frameCapacity 100
par Net10.rte[2].queue[4] useCutThroughSwitching true
scalar Net10.rte[2].queue[4] rxBytes:count 0
attr interpolationmode none
attr recordingmode count
attr title "received packet byte length, count"
attr unit bytes
scalar Net10.rte[2].queue[4] rxBytes:sum 0
attr interpolationmode none
attr recordingmode sum
attr title "received packet byte length, sum"
attr unit bytes
statistic Net10.rte[2].queue[4] rxBytes:histogram
field count 0
field mean -nan
field stddev -nan
field min -nan
field max -nan
field sum 0
field sqrsum 0
attr interpolationmode none
attr recordingmode histogram
attr title "received packet byte length"
attr unit bytes
bin	-inf	0
bin	0	0
bin	1	0
scalar Net10.rte[2].queue[4] txBytes:count 18076
attr interpolationmode none
attr recordingmode count
attr title "transmitting packet byte length, count"
attr unit bytes
scalar Net10.rte[2].queue[4] txBytes:sum 74039296
attr interpolationmode none
attr recordingmode sum
attr title "transmitting packet byte length, sum"
attr unit bytes
statistic Net10.rte[2].queue[4] txBytes:histogram
field count 18076
field mean 4096
field stddev 0
field min 4096
field max 4096
field sum 74039296
field sqrsum 303264956416
attr interpolationmode none
attr recordingmode histogram
attr title "transmitting packet byte length"
attr unit bytes
bin	-inf	0
bin	4095	0
bin	4096	18076
bin	4097	0
scalar Net10.rte[2].queue[4] busy:timeavg 0.49359530666663
attr interpolationmode sample-hold
attr recordingmode timeavg
attr title "server busy state, timeavg"
scalar Net10.rte[2].queue[4] qlen:timeavg 0.15845966129583
attr interpolationmode sample-hold
attr recordingmode timeavg
attr title "queue length, timeavg"
scalar Net10.rte[2].queue[4] qlen:max 6
attr interpolationmode sample-hold
attr recordingmode max
attr title "queue length, max"
scalar Net10.rte[2].queue[4] drop:count 0
attr interpolationmode none
attr recordingmode count
attr title "dropped packet byte length, count"
attr unit bytes
scalar Net10.rte[2].queue[4] drop:sum 0
attr interpolationmode none
attr recordingmode sum
attr title "dropped packet byte length, sum"
attr unit bytes
par Net10.rte[2] typename "\"node.Node\""
par Net10.rte[2] address 2
par Net10.rte[2] appType "\"App\""
par Net10.rte[3].app typename "\"node.App\""
par Net10.rte[3].app address 3
par Net10.rte[3].app destAddresses "\"1\""
par Net10.rte[3].app sendIaTime exponential(200ms)
attr unit s
par Net10.rte[3].app packetLength 4096byte
attr unit byte
scalar Net10.rte[3].app hopCount:mean -nan
attr interpolationmode none
attr recordingmode mean
attr title "hop count of arrived packets, mean"
scalar Net10.rte[3].app hopCount:max -nan
attr interpolationmode none
attr recordingmode max
attr title "hop count of arrived packets, max"
scalar Net10.rte[3].app endToEndDelay:mean -nan
attr interpolationmode none
attr recordingmode mean
attr title "end-to-end delay of arrived packets, mean"
attr unit s
scalar Net10.rte[3].app endToEndDelay:max -nan
attr interpolationmode none
attr recordingmode max
attr title "end-to-end delay of arrived packets, max"
attr unit s
par Net10.rte[3].routing typename "\"node.Routing\""
statistic Net10.rte[3].routing outputIf:histogram
field count 6072
field mean 1
field stddev 0
field min 1
field max 1
field sum 6072
field sqrsum 6072
attr interpolationmode none
attr recordingmode histogram
attr title "output interface for each routed packet"
bin	-inf	0
bin	0	0
bin	1	6072
bin	2	0
scalar Net10.rte[3].routing drop:count 0
attr interpolationmode none
attr recordingmode count
attr title "dropped packet byte length, count"
attr unit bytes
scalar Net10.rte[3].routing drop:sum 0
attr interpolationmode none
attr recordingmode sum
attr title "dropped packet byte length, sum"
attr unit bytes
par Net10.rte[3].queue[0] typename "\"node.L2Queue\""
par Net10.rte[3].queue[0] frameCapacity 100
par Net10.rte[3].queue[0] useCutThroughSwitching true
scalar Net10.rte[3].queue[0] rxBytes:count 0
attr interpolationmode none
attr recordingmode count
attr title "received packet byte length, count"
attr unit bytes
scalar Net10.rte[3].queue[0] rxBytes:sum 0
attr interpolationmode none
attr recordingmode sum
attr title "received packet byte length, sum"
attr unit bytes
statistic Net10.rte[3].queue[0] rxBytes:histogram
field count 0
field mean -nan
field stddev -nan
field min -nan
field max -nan
field sum 0
field sqrsum 0
attr interpolationmode none
attr recordingmode histogram
attr title "received packet byte length"
attr unit bytes
bin	-inf	0
bin	0	0
bin	1	0
scalar Net10.rte[3].queue[0] txBytes:count 0
attr interpolationmode none
attr recordingmode count
attr title "transmitting packet byte length, count"
attr unit bytes
scalar Net10.rte[3].queue[0] txBytes:sum 0
attr interpolationmode none
attr recordingmode sum
attr title "transmitting packet byte length, sum"
attr unit bytes
statistic Net10.rte[3].queue[0] txBytes:histogram
field count 0
field mean -nan
field stddev -nan
field min -nan
field max -nan
field sum 0
field sqrsum 0
attr interpolationmode none
attr recordingmode histogram
attr title "transmitting packet byte length"
attr unit bytes
bin	-inf	0
bin	0	0
bin	1	0
scalar Net10.rte[3].queue[0] busy:timeavg 0
attr interpolationmode sample-hold
attr recordingmode timeavg
attr title "server busy state, timeavg"
scalar Net10.rte[3].queue[0] qlen:timeavg 0
attr interpolationmode sample-hold
attr recordingmode timeavg
attr title "queue length, timeavg"
scalar Net10.rte[3].queue[0] qlen:max 0
attr interpolationmode sample-hold
attr recordingmode max
attr title "queue length, max"
scalar Net10.rte[3].queue[0] drop:count 0
attr interpolationmode none
attr recordingmode count
attr title "dropped packet byte length, count"
attr unit bytes
scalar Net10.rte[3].queue[0] drop:sum 0
attr interpolationmode none
attr recordingmode sum
attr title "dropped packet byte length, sum"
attr unit bytes
par Net10.rte[3].queue[1] typename "\"node.L2Queue\""
par Net10.rte[3].queue[1] frameCapacity 100
par Net10.rte[3].queue[1] useCutThroughSwitching true
scalar Net10.rte[3].queue[1] rxBytes:count 0
attr interpolationmode none
attr recordingmode count
attr title "received packet byte length, count"
attr unit bytes
scalar Net10.rte[3].queue[1] rxBytes:sum 0
attr interpolationmode none
attr recordingmode sum
attr title "received packet byte length, sum"
attr unit bytes
statistic Net10.rte[3].queue[1] rxBytes:histogram
field count 0
field mean -nan
field stddev -nan
field min -nan
field max -nan
field sum 0
field sqrsum 0
attr interpolationmode none
attr recordingmode histogram
attr title "received packet byte length"
attr unit bytes
bin	-inf	0
bin	0	0
bin	1	0
scalar Net10.rte[3].queue[1] txBytes:count 6072
attr interpolationmode none
attr recordingmode count
attr title "transmitting packet byte length, count"
attr unit bytes
scalar Net10.rte[3].queue[1] txBytes:sum 24870912
attr interpolationmode none
attr recordingmode sum
attr title "transmitting packet byte length, sum"
attr unit bytes
statistic Net10.rte[3].queue[1] txBytes:histogram
field count 6072
field mean 4096
field stddev 0
field min 4096
field max 4096
field sum 24870912
field sqrsum 101871255552
attr interpolationmode none
attr recordingmode histogram
attr title "transmitting packet byte length"
attr unit bytes
bin	-inf	0
bin	4095	0
bin	4096	6072
bin	4097	0
scalar Net10.rte[3].queue[1] busy:timeavg 0.16580608000001
attr interpolationmode sample-hold
attr recordingmode timeavg
attr title "server busy state, timeavg"
scalar Net10.rte[3].queue[1] qlen:timeavg 0.017613925628663
attr interpolationmode sample-hold
attr recordingmode timeavg
attr title "queue length, timeavg"
scalar Net10.rte[3].queue[1] qlen:max 3
attr interpolationmode sample-hold
attr recordingmode max
attr title "queue length, max"
scalar Net10.rte[3].queue[1] drop:count 0
attr interpolationmode none
attr recordingmode count
attr title "dropped packet byte length, count"
attr unit bytes
scalar Net10.rte[3].queue[1] drop:sum 0
attr interpolationmode none
attr recordingmode sum
attr title "dropped packet byte length, sum"
attr unit bytes
par Net10.rte[3].queue[2] typename "\"node.L2Queue\""
par Net10.rte[3].queue[2] frameCapacity 100
par Net10.rte[3].queue[2] useCutThroughSwitching true
scalar Net10.rte[3].queue[2] rxBytes:count 0
attr interpolationmode none
attr recordingmode count
attr title "received packet byte length, count"
attr unit bytes
scalar Net10.rte[3].queue[2] rxBytes:sum 0
attr interpolationmode none
attr recordingmode sum
attr title "received packet byte length, sum"
attr unit bytes
statistic Net10.rte[3].queue[2] rxBytes:histogram
field count 0
field mean -nan
field stddev -nan
field min -nan
field max -nan
field sum 0
field sqrsum 0
attr interpolationmode none
attr recordingmode histogram
attr title "received packet byte length"
attr unit bytes
bin	-inf	0
bin	0	0
bin	1	0
scalar Net10.rte[3].queue[2] txBytes:count 0
attr interpolationmode none
attr recordingmode count
attr title "transmitting packet byte length, count"
attr unit bytes
scalar Net10.rte[3].queue[2] txBytes:sum 0
attr interpolationmode none
attr recordingmode sum
attr title "transmitting packet byte length, sum"
attr unit bytes
statistic Net10.rte[3].queue[2] txBytes:histogram
field count 0
field mean -nan
field stddev -nan
field min -nan
field max -nan
field sum 0
field sqrsum 0
attr interpolationmode none
attr recordingmode histogram
attr title "transmitting packet byte length"
attr unit bytes
bin	-inf	0
bin	0	0
bin	1	0
scalar Net10.rte[3].queue[2] busy:timeavg 0
attr interpolationmode sample-hold
attr recordingmode timeavg
attr title "server busy state, timeavg"
scalar Net10.rte[3].queue[2] qlen:timeavg 0
attr interpolationmode sample-hold
attr recordingmode timeavg
attr title "queue length, timeavg"
scalar Net10.rte[3].queue[2] qlen:max 0
attr interpolationmode sample-hold
attr recordingmode max
attr title "queue length, max"
scalar Net10.rte[3].queue[2] drop:count 0
attr interpolationmode none
attr recordingmode count
attr title "dropped packet byte length, count"
attr unit bytes
scalar Net10.rte[3].queue[2] drop:sum 0
attr interpolationmode none
attr recordingmode sum
attr title "dropped packet byte length, sum"
attr unit bytes
par Net10.rte[3] typename "\"node.Node\""
par Net10.rte[3] address 3
par Net10.rte[3] appType "\"App\""
par Net10.rte[4].app typename "\"node.App\""
par Net10.rte[4].app address 4
par Net10.rte[4].app destAddresses "\"1\""
par Net10.rte[4].app sendIaTime exponential(200ms)
attr unit s
par Net10.rte[4].app packetLength 4096byte
attr unit byte
scalar Net10.rte[4].app hopCount:mean -nan
attr interpolationmode none
attr recordingmode mean
attr title "hop count of arrived packets, mean"
scalar Net10.rte[4].app hopCount:max -nan
attr interpolationmode none
attr recordingmode max
attr title "hop count of arrived packets, max"
scalar Net10.rte[4].app endToEndDelay:mean -nan
attr interpolationmode none
attr recordingmode mean
attr title "end-to-end delay of arrived packets, mean"
attr unit s
scalar Net10.rte[4].app endToEndDelay:max -nan
attr interpolationmode none
attr recordingmode max
attr title "end-to-end delay of arrived packets, max"
attr unit s
par Net10.rte[4].routing typename "\"node.Routing\""
statistic Net10.rte[4].routing outputIf:histogram
field count 12104
field mean 2
field stddev 0
field min 2
field max 2
field sum 24208
field sqrsum 48416
attr interpolationmode none
attr recordingmode histogram
attr title "output interface for each routed packet"
bin	-inf	0
bin	1	0
bin	2	12104
bin	3	0
scalar Net10.rte[4].routing drop:count 0
attr interpolationmode none
attr recordingmode count
attr title "dropped packet byte length, count"
attr unit bytes
scalar Net10.rte[4].routing drop:sum 0
attr interpolationmode none
attr recordingmode sum
attr title "dropped packet byte length, sum"
attr unit bytes
par Net10.rte[4].queue[0] typename "\"node.L2Queue\""
par Net10.rte[4].queue[0] frameCapacity 100
par Net10.rte[4].queue[0] useCutThroughSwitching true
scalar Net10.rte[4].queue[0] rxBytes:count 6112
attr interpolationmode none
attr recordingmode count
attr title "received packet byte length, count"
attr unit bytes
scalar Net10.rte[4].queue[0] rxBytes:sum 25034752
attr interpolationmode none
attr recordingmode sum
attr title "received packet byte length, sum"
attr unit bytes
statistic Net10.rte[4].queue[0] rxBytes:histogram
field count 6112
field mean 4096
field stddev 0
field min 4096
field max 4096
field sum 25034752
field sqrsum 102542344192
attr interpolationmode none
attr recordingmode histogram
attr title "received packet byte length"
attr unit bytes
bin	-inf	0
bin	4095	0
bin	4096	6112
bin	4097	0
scalar Net10.rte[4].queue[0] txBytes:count 0
attr interpolationmode none
attr recordingmode count
attr title "transmitting packet byte length, count"
attr unit bytes
scalar Net10.rte[4].queue[0] txBytes:sum 0
attr interpolationmode none
attr recordingmode sum
attr title "transmitting packet byte length, sum"
attr unit bytes
statistic Net10.rte[4].queue[0] txBytes:histogram
field count 0
field mean -nan
field stddev -nan
field min -nan
field max -nan
field sum 0
field sqrsum 0
attr interpolationmode none
attr recordingmode histogram
attr title "transmitting packet byte length"
attr unit bytes
bin	-inf	0
bin	0	0
bin	1	0
scalar Net10.rte[4].queue[0] busy:timeavg 0
attr interpolationmode sample-hold
attr recordingmode timeavg
attr title "server busy state, timeavg"
scalar Net10.rte[4].queue[0] qlen:timeavg 0
attr interpolationmode sample-hold
attr recordingmode timeavg
attr title "queue length, timeavg"
scalar Net10.rte[4].queue[0] qlen:max 0
attr interpolationmode sample-hold
attr recordingmode max
attr title "queue length, max"
scalar Net10.rte[4].queue[0] drop:count 0
attr interpolationmode none
attr recordingmode count
attr title "dropped packet byte length, count"
attr unit bytes
scalar Net10.rte[4].queue[0] drop:sum 0
attr interpolationmode none
attr recordingmode sum
attr title "dropped packet byte length, sum"
attr unit bytes
par Net10.rte[4].queue[1] typename "\"node.L2Queue\""
par Net10.rte[4].queue[1] frameCapacity 100
par Net10.rte[4].queue[1] useCutThroughSwitching true
scalar Net10.rte[4].queue[1] rxBytes:count 0
attr interpolationmode none
attr recordingmode count
attr title "received packet byte length, count"
attr unit bytes
scalar Net10.rte[4].queue[1] rxBytes:sum 0
attr interpolationmode none
attr recordingmode sum
attr title "received packet byte length, sum"
attr unit bytes
statistic Net10.rte[4].queue[1] rxBytes:histogram
field count 0
field mean -nan
field stddev -nan
field min -nan
field max -nan
field sum 0
field sqrsum 0
attr interpolationmode none
attr recordingmode histogram
attr title "received packet byte length"
attr unit bytes
bin	-inf	0
bin	0	0
bin	1	0
scalar Net10.rte[4].queue[1] txBytes:count 0
attr interpolationmode none
attr recordingmode count
attr title "transmitting packet byte length, count"
attr unit bytes
scalar Net10.rte[4].queue[1] txBytes:sum 0
attr interpolationmode none
attr recordingmode sum
attr title "transmitting packet byte length, sum"
attr unit bytes
statistic Net10.rte[4].queue[1] txBytes:histogram
field count 0
field mean -nan
field stddev -nan
field min -nan
field max -nan
field sum 0
field sqrsum 0
attr interpolationmode none
attr recordingmode histogram
attr title "transmitting packet byte length"
attr unit bytes
bin	-inf	0
bin	0	0
bin	1	0
scalar Net10.rte[4].queue[1] busy:timeavg 0
attr interpolationmode sample-hold
attr recordingmode timeavg
attr title "server busy state, timeavg"
scalar Net10.rte[4].queue[1] qlen:timeavg 0
attr interpolationmode sample-hold
attr recordingmode timeavg
attr title "queue length, timeavg"
scalar Net10.rte[4].queue[1] qlen:max 0
attr interpolationmode sample-hold
attr recordingmode max
attr title "queue length, max"
scalar Net10.rte[4].queue[1] drop:count 0
attr interpolationmode none
attr recordingmode count
attr title "dropped packet byte length, count"
attr unit bytes
scalar Net10.rte[4].queue[1] drop:sum 0
attr interpolationmode none
attr recordingmode sum
attr title "dropped packet byte length, sum"
attr unit bytes
par Net10.rte[4].queue[2] typename "\"node.L2Queue\""
par Net10.rte[4].queue[2] frameCapacity 100
par Net10.rte[4].queue[2] useCutThroughSwitching true
scalar Net10.rte[4].queue[2] rxBytes:count 0
attr interpolationmode none
attr recordingmode count
attr title "received packet byte length, count"
attr unit bytes
scalar Net10.rte[4].queue[2] rxBytes:sum 0
attr interpolationmode none
attr recordingmode sum
attr title "received packet byte length, sum"
attr unit bytes
statistic Net10.rte[4].queue[2] rxBytes:histogram
field count 0
field mean -nan
field stddev -nan
field min -nan
field max -nan
field sum 0
field sqrsum 0
attr interpolationmode none
attr recordingmode histogram
attr title "received packet byte length"
attr unit bytes
bin	-inf	0
bin	0	0
bin	1	0
scalar Net10.rte[4].queue[2] txBytes:count 12104
attr interpolationmode none
attr recordingmode count
attr title "transmitting packet byte length, count"
attr unit bytes
scalar Net10.rte[4].queue[2] txBytes:sum 49577984
attr interpolationmode none
attr recordingmode sum
attr title "transmitting packet byte length, sum"
attr unit bytes
statistic Net10.rte[4].queue[2] txBytes:histogram
field count 12104
field mean 4096
field stddev 0
field min 4096
field max 4096
field sum 49577984
field sqrsum 203071422464
attr interpolationmode none
attr recordingmode histogram
attr title "transmitting packet byte length"
attr unit bytes
bin	-inf	0
bin	4095	0
bin	4096	12104
bin	4097	0
scalar Net10.rte[4].queue[2] busy:timeavg 0.3305198933333
attr interpolationmode sample-hold
attr recordingmode timeavg
attr title "server busy state, timeavg"
scalar Net10.rte[4].queue[2] qlen:timeavg 0.065674632666539
attr interpolationmode sample-hold
attr recordingmode timeavg
attr title "queue length, timeavg"
scalar Net10.rte[4].queue[2] qlen:max 4
attr interpolationmode sample-hold
attr recordingmode max
attr title "queue length, max"
scalar Net10.rte[4].queue[2] drop:count 0
attr interpolationmode none
attr recordingmode count
attr title "dropped packet byte length, count"
attr unit bytes
scalar Net10.rte[4].queue[2] drop:sum 0
attr interpolationmode none
attr recordingmode sum
attr title "dropped packet byte length, sum"
attr unit bytes
par Net10.rte[4].queue[3] typename "\"node.L2Queue\""
par Net10.rte[4].queue[3] frameCapacity 100
par Net10.rte[4].queue[3] useCutThroughSwitching true
scalar Net10.rte[4].queue[3] rxBytes:count 0
attr interpolationmode none
attr recordingmode count
attr title "received packet byte length, count"
attr unit bytes
scalar Net10.rte[4].queue[3] rxBytes:sum 0
attr interpolationmode none
attr recordingmode sum
attr title "received packet byte length, sum"
attr unit bytes
statistic Net10.rte[4].queue[3] rxBytes:histogram
field count 0
field mean -nan
field stddev -nan
field min -nan
field max -nan
field sum 0
field sqrsum 0
attr interpolationmode none
attr recordingmode histogram
attr title "received packet byte length"
attr unit bytes
bin	-inf	0
bin	0	0
bin	1	0
scalar Net10.rte[4].queue[3] txBytes:count 0
attr interpolationmode none
attr recordingmode count
attr title "transmitting packet byte length, count"
attr unit bytes
scalar Net10.rte[4].queue[3] txBytes:sum 0
attr interpolationmode none
attr recordingmode sum
attr title "transmitting packet byte length, sum"
attr unit bytes
statistic Net10.rte[4].queue[3] txBytes:histogram
field count 0
field mean -nan
field stddev -nan
field min -nan
field max -nan
field sum 0
field sqrsum 0
attr interpolationmode none
attr recordingmode histogram
attr title "transmitting packet byte length"
attr unit bytes
bin	-inf	0
bin	0	0
bin	1	0
scalar Net10.rte[4].queue[3] busy:timeavg 0
attr interpolationmode sample-hold
attr recordingmode timeavg
attr title "server busy state, timeavg"
scalar Net10.rte[4].queue[3] qlen:timeavg 0
attr interpolationmode sample-hold
attr recordingmode timeavg
attr title "queue length, timeavg"
scalar Net10.rte[4].queue[3] qlen:max 0
attr interpolationmode sample-hold
attr recordingmode max
attr title "queue length, max"
scalar Net10.rte[4].queue[3] drop:count 0
attr interpolationmode none
attr recordingmode count
attr title "dropped packet byte length, count"
attr unit bytes
scalar Net10.rte[4].queue[3] drop:sum 0
attr interpolationmode none
attr recordingmode sum
attr title "dropped packet byte length, sum"
attr unit bytes
par Net10.rte[4] typename "\"node.Node\""
par Net10.rte[4] address 4
par Net10.rte[4] appType "\"App\""
par Net10.rte[5].app typename "\"node.App\""
par Net10.rte[5].app address 5
par Net10.rte[5].app destAddresses "\"1\""
par Net10.rte[5].app sendIaTime exponential(200ms)
attr unit s
par Net10.rte[5].app packetLength 4096byte
attr unit byte
scalar Net10.rte[5].app hopCount:mean -nan
attr interpolationmode none
attr recordingmode mean
attr title "hop count of arrived packets, mean"
scalar Net10.rte[5].app hopCount:max -nan
attr interpolationmode none
attr recordingmode max
attr title "hop count of arrived packets, max"
scalar Net10.rte[5].app endToEndDelay:mean -nan
attr interpolationmode none
attr recordingmode mean
attr title "end-to-end delay of arrived packets, mean"
attr unit s
scalar Net10.rte[5].app endToEndDelay:max -nan
attr interpolationmode none
attr recordingmode max
attr title "end-to-end delay of arrived packets, max"
attr unit s
par Net10.rte[5].routing typename "\"node.Routing\""
statistic Net10.rte[5].routing outputIf:histogram
field count 24182
field mean 3
field stddev 0
field min 3
field max 3
field sum 72546
field sqrsum 217638
attr interpolationmode none
attr recordingmode histogram
attr title "output interface for each routed packet"
bin	-inf	0
bin	2	0
bin	3	24182
bin	4	0
scalar Net10.rte[5].routing drop:count 0
attr interpolationmode none
attr recordingmode count
attr title "dropped packet byte length, count"
attr unit bytes
scalar Net10.rte[5].routing drop:sum 0
attr interpolationmode none
attr recordingmode sum
attr title "dropped packet byte length, sum"
attr unit bytes
par Net10.rte[5].queue[0] typename "\"node.L2Queue\""
par Net10.rte[5].queue[0] frameCapacity 100
par Net10.rte[5].queue[0] useCutThroughSwitching true
scalar Net10.rte[5].queue[0] rxBytes:count 0
attr interpolationmode none
attr recordingmode count
attr title "received packet byte length, count"
attr unit bytes
scalar Net10.rte[5].queue[0] rxBytes:sum 0
attr interpolationmode none
attr recordingmode sum
attr title "received packet byte length, sum"
attr unit bytes
statistic Net10.rte[5].queue[0] rxBytes:histogram
field count 0
field mean -nan
field stddev -nan
field min -nan
field max -nan
field sum 0
field sqrsum 0
attr interpolationmode none
attr recordingmode histogram
attr title "received packet byte length"
attr unit bytes
bin	-inf	0
bin	0	0
bin	1	0
scalar Net10.rte[5].queue[0] txBytes:count 0
attr interpolationmode none
attr recordingmode count
attr title "transmitting packet byte length, count"
attr unit bytes
scalar Net10.rte[5].queue[0] txBytes:sum 0
attr interpolationmode none
attr recordingmode sum
attr title "transmitting packet byte length, sum"
attr unit bytes
statistic Net10.rte[5].queue[0] txBytes:histogram
field count 0
field mean -nan
field stddev -nan
field min -nan
field max -nan
field sum 0
field sqrsum 0
attr interpolationmode none
attr recordingmode histogram
attr title "transmitting packet byte length"
attr unit bytes
bin	-inf	0
bin	0	0
bin	1	0
scalar Net10.rte[5].queue[0] busy:timeavg 0
attr interpolationmode sample-hold
attr recordingmode timeavg
attr title "server busy state, timeavg"
scalar Net10.rte[5].queue[0] qlen:timeavg 0
attr interpolationmode sample-hold
attr recordingmode timeavg
attr title "queue length, timeavg"
scalar Net10.rte[5].queue[0] qlen:max 0
attr interpolationmode sample-hold
attr recordingmode max
attr title "queue length, max"
scalar Net10.rte[5].queue[0] drop:count 0
attr interpolationmode none
attr recordingmode count
attr title "dropped packet byte length, count"
attr unit bytes
scalar Net10.rte[5].queue[0] drop:sum 0
attr interpolationmode none
attr recordingmode sum
attr title "dropped packet byte length, sum"
attr unit bytes
par Net10.rte[5].queue[1] typename "\"node.L2Queue\""
par Net10.rte[5].queue[1] frameCapacity 100
par Net10.rte[5].queue[1] useCutThroughSwitching true
scalar Net10.rte[5].queue[1] rxBytes:count 6038
attr interpolationmode none
attr recordingmode count
attr title "received packet byte length, count"
attr unit bytes
scalar Net10.rte[5].queue[1] rxBytes:sum 24731648
attr interpolationmode none
attr recordingmode sum
attr title "received packet byte length, sum"
attr unit bytes
statistic Net10.rte[5].queue[1] rxBytes:histogram
field count 6038
field mean 4096
field stddev 0
field min 4096
field max 4096
field sum 24731648
field sqrsum 101300830208
attr interpolationmode none
attr recordingmode histogram
attr title "received packet byte length"
attr unit bytes
bin	-inf	0
bin	4095	0
bin	4096	6038
bin	4097	0
scalar Net10.rte[5].queue[1] txBytes:count 0
attr interpolationmode none
attr recordingmode count
attr title "transmitting packet byte length, count"
attr unit bytes
scalar Net10.rte[5].queue[1] txBytes:sum 0
attr interpolationmode none
attr recordingmode sum
attr title "transmitting packet byte length, sum"
attr unit bytes
statistic Net10.rte[5].queue[1] txBytes:histogram
field count 0
field mean -nan
field stddev -nan
field min -nan
field max -nan
field sum 0
field sqrsum 0
attr interpolationmode none
attr recordingmode histogram
attr title "transmitting packet byte length"
attr unit bytes
bin	-inf	0
bin	0	0
bin	1	0
scalar Net10.rte[5].queue[1] busy:timeavg 0
attr interpolationmode sample-hold
attr recordingmode timeavg
attr title "server busy state, timeavg"
scalar Net10.rte[5].queue[1] qlen:timeavg 0
attr interpolationmode sample-hold
attr recordingmode timeavg
attr title "queue length, timeavg"
scalar Net10.rte[5].queue[1] qlen:max 0
attr interpolationmode sample-hold
attr recordingmode max
attr title "queue length, max"
scalar Net10.rte[5].queue[1] drop:count 0
attr interpolationmode none
attr recordingmode count
attr title "dropped packet byte length, count"
attr unit bytes
scalar Net10.rte[5].queue[1] drop:sum 0
attr interpolationmode none
attr recordingmode sum
attr title "dropped packet byte length, sum"
attr unit bytes
par Net10.rte[5].queue[2] typename "\"node.L2Queue\""
par Net10.rte[5].queue[2] frameCapacity 100
par Net10.rte[5].queue[2] useCutThroughSwitching true
scalar Net10.rte[5].queue[2] rxBytes:count 12097
attr interpolationmode none
attr recordingmode count
attr title "received packet byte length, count"
attr unit bytes
scalar Net10.rte[5].queue[2] rxBytes:sum 49549312
attr interpolationmode none
attr recordingmode sum
attr title "received packet byte length, sum"
attr unit bytes
statistic Net10.rte[5].queue[2] rxBytes:histogram
field count 12097
field mean 4096
field stddev 0
field min 4096
field max 4096
field sum 49549312
field sqrsum 202953981952
attr interpolationmode none
attr recordingmode histogram
attr title "received packet byte length"
attr unit bytes
bin	-inf	0
bin	4095	0
bin	4096	12097
bin	4097	0
scalar Net10.rte[5].queue[2] txBytes:count 0
attr interpolationmode none
attr recordingmode count
attr title "transmitting packet byte length, count"
attr unit bytes
scalar Net10.rte[5].queue[2] txBytes:sum 0
attr interpolationmode none
attr recordingmode sum
attr title "transmitting packet byte length, sum"
attr unit bytes
statistic Net10.rte[5].queue[2] txBytes:histogram
field count 0
field mean -nan
field stddev -nan
field min -nan
field max -nan
field sum 0
field sqrsum 0
attr interpolationmode none
attr recordingmode histogram
attr title "transmitting packet byte length"
attr unit bytes
bin	-inf	0
bin	0	0
bin	1	0
scalar Net10.rte[5].queue[2] busy:timeavg 0
attr interpolationmode sample-hold
attr recordingmode timeavg
attr title "server busy state, timeavg"
scalar Net10.rte[5].queue[2] qlen:timeavg 0
attr interpolationmode sample-hold
attr recordingmode timeavg
attr title "queue length, timeavg"
scalar Net10.rte[5].queue[2] qlen:max 0
attr interpolationmode sample-hold
attr recordingmode max
attr title "queue length, max"
scalar Net10.rte[5].queue[2] drop:count 0
attr interpolationmode none
attr recordingmode count
attr title "dropped packet byte length, count"
attr unit bytes
scalar Net10.rte[5].queue[2] drop:sum 0
attr interpolationmode none
attr recordingmode sum
attr title "dropped packet byte length, sum"
attr unit bytes
par Net10.rte[5].queue[3] typename "\"node.L2Queue\""
par Net10.rte[5].queue[3] frameCapacity 100
par Net10.rte[5].queue[3] useCutThroughSwitching true
scalar Net10.rte[5].queue[3] rxBytes:count 0
attr interpolationmode none
attr recordingmode count
attr title "received packet byte length, count"
attr unit bytes
scalar Net10.rte[5].queue[3] rxBytes:sum 0
attr interpolationmode none
attr recordingmode sum
attr title "received packet byte length, sum"
attr unit bytes
statistic Net10.rte[5].queue[3] rxBytes:histogram
field count 0
field mean -nan
field stddev -nan
field min -nan
field max -nan
field sum 0
field sqrsum 0
attr interpolationmode none
attr recordingmode histogram
attr title "received packet byte length"
attr unit bytes
bin	-inf	0
bin	0	0
bin	1	0
scalar Net10.rte[5].queue[3] txBytes:count 24181
attr interpolationmode none
attr recordingmode count
attr title "transmitting packet byte length, count"
attr unit bytes
scalar Net10.rte[5].queue[3] txBytes:sum 99045376
attr interpolationmode none
attr recordingmode sum
attr title "transmitting packet byte length, sum"
attr unit bytes
statistic Net10.rte[5].queue[3] txBytes:histogram
field count 24181
field mean 4096
field stddev 0
field min 4096
field max 4096
field sum 99045376
field sqrsum 405689860096
attr interpolationmode none
attr recordingmode histogram
attr title "transmitting packet byte length"
attr unit bytes
bin	-inf	0
bin	4095	0
bin	4096	24181
bin	4097	0
scalar Net10.rte[5].queue[3] busy:timeavg 0.66029126739933
attr interpolationmode sample-hold
attr recordingmode timeavg
attr title "server busy state, timeavg"
scalar Net10.rte[5].queue[3] qlen:timeavg 0.51979983806425
attr interpolationmode sample-hold
attr recordingmode timeavg
attr title "queue length, timeavg"
scalar Net10.rte[5].queue[3] qlen:max 11
attr interpolationmode sample-hold
attr recordingmode max
attr title "queue length, max"
scalar Net10.rte[5].queue[3] drop:count 0
attr interpolationmode none
attr recordingmode count
attr title "dropped packet byte length, count"
attr unit bytes
scalar Net10.rte[5].queue[3] drop:sum 0
attr interpolationmode none
attr recordingmode sum
attr title "dropped packet byte length, sum"
attr unit bytes
par Net10.rte[5] typename "\"node.Node\""
par Net10.rte[5] address 5
par Net10.rte[5] appType "\"App\""
par Net10.rte[6].app typename "\"node.App\""
par Net10.rte[6].app address 6
par Net10.rte[6].app destAddresses "\"1\""
par Net10.rte[6].app sendIaTime exponential(200ms)
attr unit s
par Net10.rte[6].app packetLength 4096byte
attr unit byte
scalar Net10.rte[6].app hopCount:mean -nan
attr interpolationmode none
attr recordingmode mean
attr title "hop count of arrived packets, mean"
scalar Net10.rte[6].app hopCount:max -nan
attr interpolationmode none
attr recordingmode max
attr title "hop count of arrived packets, max"
scalar Net10.rte[6].app endToEndDelay:mean -nan
attr interpolationmode none
attr recordingmode mean
attr title "end-to-end delay of arrived packets, mean"
attr unit s
scalar Net10.rte[6].app endToEndDelay:max -nan
attr interpolationmode none
attr recordingmode max
attr title "end-to-end delay of arrived packets, max"
attr unit s
par Net10.rte[6].routing typename "\"node.Routing\""
statistic Net10.rte[6].routing outputIf:histogram
field count 12097
field mean 4
field stddev 0
field min 4
field max 4
field sum 48388
field sqrsum 193552
attr interpolationmode none
attr recordingmode histogram
attr title "output interface for each routed packet"
bin	-inf	0
bin	3	0
bin	4	12097
bin	5	0
scalar Net10.rte[6].routing drop:count 0
attr interpolationmode none
attr recordingmode count
attr title "dropped packet byte length, count"
attr unit bytes
scalar Net10.rte[6].routing drop:sum 0
attr interpolationmode none
attr recordingmode sum
attr title "dropped packet byte length, sum"
attr unit bytes
par Net10.rte[6].queue[0] typename "\"node.L2Queue\""
par Net10.rte[6].queue[0] frameCapacity 100
par Net10.rte[6].queue[0] useCutThroughSwitching true
scalar Net10.rte[6].queue[0] rxBytes:count 0
attr interpolationmode none
attr recordingmode count
attr title "received packet byte length, count"
attr unit bytes
scalar Net10.rte[6].queue[0] rxBytes:sum 0
attr interpolationmode none
attr recordingmode sum
attr title "received packet byte length, sum"
attr unit bytes
statistic Net10.rte[6].queue[0] rxBytes:histogram
field count 0
field mean -nan
field stddev -nan
field min -nan
field max -nan
field sum 0
field sqrsum 0
attr interpolationmode none
attr recordingmode histogram
attr title "received packet byte length"
attr unit bytes
bin	-inf	0
bin	0	0
bin	1	0
scalar Net10.rte[6].queue[0] txBytes:count 0
attr interpolationmode none
attr recordingmode count
attr title "transmitting packet byte length, count"
attr unit bytes
scalar Net10.rte[6].queue[0] txBytes:sum 0
attr interpolationmode none
attr recordingmode sum
attr title "transmitting packet byte length, sum"
attr unit bytes
statistic Net10.rte[6].queue[0] txBytes:histogram
field count 0
field mean -nan
field stddev -nan
field min -nan
field max -nan
field sum 0
field sqrsum 0
attr interpolationmode none
attr recordingmode histogram
attr title "transmitting packet byte length"
attr unit bytes
bin	-inf	0
bin	0	0
bin	1	0
scalar Net10.rte[6].queue[0] busy:timeavg 0
attr interpolationmode sample-hold
attr recordingmode timeavg
attr title "server busy state, timeavg"
scalar Net10.rte[6].queue[0] qlen:timeavg 0
attr interpolationmode sample-hold
attr recordingmode timeavg
attr title "queue length, timeavg"
scalar Net10.rte[6].queue[0] qlen:max 0
attr interpolationmode sample-hold
attr recordingmode max
attr title "queue length, max"
scalar Net10.rte[6].queue[0] drop:count 0
attr interpolationmode none
attr recordingmode count
attr title "dropped packet byte length, count"
attr unit bytes
scalar Net10.rte[6].queue[0] drop:sum 0
attr interpolationmode none
attr recordingmode sum
attr title "dropped packet byte length, sum"
attr unit bytes
par Net10.rte[6].queue[1] typename "\"node.L2Queue\""
par Net10.rte[6].queue[1] frameCapacity 100
par Net10.rte[6].queue[1] useCutThroughSwitching true
scalar Net10.rte[6].queue[1] rxBytes:count 0
attr interpolationmode none
attr recordingmode count
attr title "received packet byte length, count"
attr unit bytes
scalar Net10.rte[6].queue[1] rxBytes:sum 0
attr interpolationmode none
attr recordingmode sum
attr title "received packet byte length, sum"
attr unit bytes
statistic Net10.rte[6].queue[1] rxBytes:histogram
field count 0
field mean -nan
field stddev -nan
field min -nan
field max -nan
field sum 0
field sqrsum 0
attr interpolationmode none
attr recordingmode histogram
attr title "received packet byte length"
attr unit bytes
bin	-inf	0
bin	0	0
bin	1	0
scalar Net10.rte[6].queue[1] txBytes:count 0
attr interpolationmode none
attr recordingmode count
attr title "transmitting packet byte length, count"
attr unit bytes
scalar Net10.rte[6].queue[1] txBytes:sum 0
attr interpolationmode none
attr recordingmode sum
attr title "transmitting packet byte length, sum"
attr unit bytes
statistic Net10.rte[6].queue[1] txBytes:histogram
field count 0
field mean -nan
field stddev -nan
field min -nan
field max -nan
field sum 0
field sqrsum 0
attr interpolationmode none
attr recordingmode histogram
attr title "transmitting packet byte length"
attr unit bytes
bin	-inf	0
bin	0	0
bin	1	0
scalar Net10.rte[6].queue[1] busy:timeavg 0
attr interpolationmode sample-hold
attr recordingmode timeavg
attr title "server busy state, timeavg"
scalar Net10.rte[6].queue[1] qlen:timeavg 0
attr interpolationmode sample-hold
attr recordingmode timeavg
attr title "queue length, timeavg"
scalar Net10.rte[6].queue[1] qlen:max 0
attr interpolationmode sample-hold
attr recordingmode max
attr title "queue length, max"
scalar Net10.rte[6].queue[1] drop:count 0
attr interpolationmode none
attr recordingmode count
attr title "dropped packet byte length, count"
attr unit bytes
scalar Net10.rte[6].queue[1] drop:sum 0
attr interpolationmode none
attr recordingmode sum
attr title "dropped packet byte length, sum"
attr unit bytes
par Net10.rte[6].queue[2] typename "\"node.L2Queue\""
par Net10.rte[6].queue[2] frameCapacity 100
par Net10.rte[6].queue[2] useCutThroughSwitching true
scalar Net10.rte[6].queue[2] rxBytes:count 5981
attr interpolationmode none
attr recordingmode count
attr title "received packet byte length, count"
attr unit bytes
scalar Net10.rte[6].queue[2] rxBytes:sum 24498176
attr interpolationmode none
attr recordingmode sum
attr title "received packet byte length, sum"
attr unit bytes
statistic Net10.rte[6].queue[2] rxBytes:histogram
field count 5981
field mean 4096
field stddev 0
field min 4096
field max 4096
field sum 24498176
field sqrsum 100344528896
attr interpolationmode none
attr recordingmode histogram
[...]
field count 0
field mean -nan
field stddev -nan
field min -nan
field max -nan
field sum 0
field sqrsum 0
attr interpolationmode none
attr recordingmode histogram
attr title "received packet byte length"
attr unit bytes
bin	-inf	0
bin	0	0
bin	1	0
scalar Net10.rte[7].queue[1] txBytes:count 0
attr interpolationmode none
attr recordingmode count
attr title "transmitting packet byte length, count"
attr unit bytes
scalar Net10.rte[7].queue[1] txBytes:sum 0
attr interpolationmode none
attr recordingmode sum
attr title "transmitting packet byte length, sum"
attr unit bytes
statistic Net10.rte[7].queue[1] txBytes:histogram
field count 0
field mean -nan
field stddev -nan
field min -nan
field max -nan
field sum 0
field sqrsum 0
attr interpolationmode none
attr recordingmode histogram
attr title "transmitting packet byte length"
attr unit bytes
bin	-inf	0
bin	0	0
bin	1	0
scalar Net10.rte[7].queue[1] busy:timeavg 0
attr interpolationmode sample-hold
attr recordingmode timeavg
attr title "server busy state, timeavg"
scalar Net10.rte[7].queue[1] qlen:timeavg 0
attr interpolationmode sample-hold
attr recordingmode timeavg
attr title "queue length, timeavg"
scalar Net10.rte[7].queue[1] qlen:max 0
attr interpolationmode sample-hold
attr recordingmode max
attr title "queue length, max"
scalar Net10.rte[7].queue[1] drop:count 0
attr interpolationmode none
attr recordingmode count
attr title "dropped packet byte length, count"
attr unit bytes
scalar Net10.rte[7].queue[1] drop:sum 0
attr interpolationmode none
attr recordingmode sum
attr title "dropped packet byte length, sum"
attr unit bytes
par Net10.rte[7].queue[2] typename "\"node.L2Queue\""
par Net10.rte[7].queue[2] frameCapacity 100
par Net10.rte[7].queue[2] useCutThroughSwitching true
scalar Net10.rte[7].queue[2] rxBytes:count 0
attr interpolationmode none
attr recordingmode count
attr title "received packet byte length, count"
attr unit bytes
scalar Net10.rte[7].queue[2] rxBytes:sum 0
attr interpolationmode none
attr recordingmode sum
attr title "received packet byte length, sum"
attr unit bytes
statistic Net10.rte[7].queue[2] rxBytes:histogram
field count 0
field mean -nan
field stddev -nan
field min -nan
field max -nan
field sum 0
field sqrsum 0
attr interpolationmode none
attr recordingmode histogram
attr title "received packet byte length"
attr unit bytes
bin	-inf	0
bin	0	0
bin	1	0
scalar Net10.rte[7].queue[2] txBytes:count 0
attr interpolationmode none
attr recordingmode count
attr title "transmitting packet byte length, count"
attr unit bytes
scalar Net10.rte[7].queue[2] txBytes:sum 0
attr interpolationmode none
attr recordingmode sum
attr title "transmitting packet byte length, sum"
attr unit bytes
statistic Net10.rte[7].queue[2] txBytes:histogram
field count 0
field mean -nan
field stddev -nan
field min -nan
field max -nan
field sum 0
field sqrsum 0
attr interpolationmode none
attr recordingmode histogram
attr title "transmitting packet byte length"
attr unit bytes
bin	-inf	0
bin	0	0
bin	1	0
scalar Net10.rte[7].queue[2] busy:timeavg 0
attr interpolationmode sample-hold
attr recordingmode timeavg
attr title "server busy state, timeavg"
scalar Net10.rte[7].queue[2] qlen:timeavg 0
attr interpolationmode sample-hold
attr recordingmode timeavg
attr title "queue length, timeavg"
scalar Net10.rte[7].queue[2] qlen:max 0
attr interpolationmode sample-hold
attr recordingmode max
attr title "queue length, max"
scalar Net10.rte[7].queue[2] drop:count 0
attr interpolationmode none
attr recordingmode count
attr title "dropped packet byte length, count"
attr unit bytes
scalar Net10.rte[7].queue[2] drop:sum 0
attr interpolationmode none
attr recordingmode sum
attr title "dropped packet byte length, sum"
attr unit bytes
par Net10.rte[7] typename "\"node.Node\""
par Net10.rte[7] address 7
par Net10.rte[7] appType "\"App\""
par Net10.rte[8].app typename "\"node.App\""
par Net10.rte[8].app address 8
par Net10.rte[8].app destAddresses "\"1\""
par Net10.rte[8].app sendIaTime exponential(200ms)
attr unit s
par Net10.rte[8].app packetLength 4096byte
attr unit byte
scalar Net10.rte[8].app hopCount:mean -nan
attr interpolationmode none
attr recordingmode mean
attr title "hop count of arrived packets, mean"
scalar Net10.rte[8].app hopCount:max -nan
attr interpolationmode none
attr recordingmode max
attr title "hop count of arrived packets, max"
scalar Net10.rte[8].app endToEndDelay:mean -nan
attr interpolationmode none
attr recordingmode mean
attr title "end-to-end delay of arrived packets, mean"
attr unit s
scalar Net10.rte[8].app endToEndDelay:max -nan
attr interpolationmode none
attr recordingmode max
attr title "end-to-end delay of arrived packets, max"
attr unit s
par Net10.rte[8].routing typename "\"node.Routing\""
statistic Net10.rte[8].routing outputIf:histogram
field count 6112
field mean 1
field stddev 0
field min 1
field max 1
field sum 6112
field sqrsum 6112
attr interpolationmode none
attr recordingmode histogram
attr title "output interface for each routed packet"
bin	-inf	0
bin	0	0
bin	1	6112
bin	2	0
scalar Net10.rte[8].routing drop:count 0
attr interpolationmode none
attr recordingmode count
attr title "dropped packet byte length, count"
attr unit bytes
scalar Net10.rte[8].routing drop:sum 0
attr interpolationmode none
attr recordingmode sum
attr title "dropped packet byte length, sum"
attr unit bytes
par Net10.rte[8].queue[0] typename "\"node.L2Queue\""
par Net10.rte[8].queue[0] frameCapacity 100
par Net10.rte[8].queue[0] useCutThroughSwitching true
scalar Net10.rte[8].queue[0] rxBytes:count 0
attr interpolationmode none
attr recordingmode count
attr title "received packet byte length, count"
attr unit bytes
scalar Net10.rte[8].queue[0] rxBytes:sum 0
attr interpolationmode none
attr recordingmode sum
attr title "received packet byte length, sum"
attr unit bytes
statistic Net10.rte[8].queue[0] rxBytes:histogram
field count 0
field mean -nan
field stddev -nan
field min -nan
field max -nan
field sum 0
field sqrsum 0
attr interpolationmode none
attr recordingmode histogram
attr title "received packet byte length"
attr unit bytes
bin	-inf	0
bin	0	0
bin	1	0
scalar Net10.rte[8].queue[0] txBytes:count 0
attr interpolationmode none
attr recordingmode count
attr title "transmitting packet byte length, count"
attr unit bytes
scalar Net10.rte[8].queue[0] txBytes:sum 0
attr interpolationmode none
attr recordingmode sum
attr title "transmitting packet byte length, sum"
attr unit bytes
statistic Net10.rte[8].queue[0] txBytes:histogram
field count 0
field mean -nan
field stddev -nan
field min -nan
field max -nan
field sum 0
field sqrsum 0
attr interpolationmode none
attr recordingmode histogram
attr title "transmitting packet byte length"
attr unit bytes
bin	-inf	0
bin	0	0
bin	1	0
scalar Net10.rte[8].queue[0] busy:timeavg 0
attr interpolationmode sample-hold
attr recordingmode timeavg
attr title "server busy state, timeavg"
scalar Net10.rte[8].queue[0] qlen:timeavg 0
attr interpolationmode sample-hold
attr recordingmode timeavg
attr title "queue length, timeavg"
scalar Net10.rte[8].queue[0] qlen:max 0
attr interpolationmode sample-hold
attr recordingmode max
attr title "queue length, max"
scalar Net10.rte[8].queue[0] drop:count 0
attr interpolationmode none
attr recordingmode count
attr title "dropped packet byte length, count"
attr unit bytes
scalar Net10.rte[8].queue[0] drop:sum 0
attr interpolationmode none
attr recordingmode sum
attr title "dropped packet byte length, sum"
attr unit bytes
par Net10.rte[8].queue[1] typename "\"node.L2Queue\""
par Net10.rte[8].queue[1] frameCapacity 100
par Net10.rte[8].queue[1] useCutThroughSwitching true
scalar Net10.rte[8].queue[1] rxBytes:count 0
attr interpolationmode none
attr recordingmode count
attr title "received packet byte length, count"
attr unit bytes
scalar Net10.rte[8].queue[1] rxBytes:sum 0
attr interpolationmode none
attr recordingmode sum
attr title "received packet byte length, sum"
attr unit bytes
statistic Net10.rte[8].queue[1] rxBytes:histogram
field count 0
field mean -nan
field stddev -nan
field min -nan
field max -nan
field sum 0
field sqrsum 0
attr interpolationmode none
attr recordingmode histogram
attr title "received packet byte length"
attr unit bytes
bin	-inf	0
bin	0	0
bin	1	0
scalar Net10.rte[8].queue[1] txBytes:count 6112
attr interpolationmode none
attr recordingmode count
attr title "transmitting packet byte length, count"
attr unit bytes
scalar Net10.rte[8].queue[1] txBytes:sum 25034752
attr interpolationmode none
attr recordingmode sum
attr title "transmitting packet byte length, sum"
attr unit bytes
statistic Net10.rte[8].queue[1] txBytes:histogram
field count 6112
field mean 4096
field stddev 0
field min 4096
field max 4096
field sum 25034752
field sqrsum 102542344192
attr interpolationmode none
attr recordingmode histogram
attr title "transmitting packet byte length"
attr unit bytes
bin	-inf	0
bin	4095	0
bin	4096	6112
bin	4097	0
scalar Net10.rte[8].queue[1] busy:timeavg 0.16689834666668
attr interpolationmode sample-hold
attr recordingmode timeavg
attr title "server busy state, timeavg"
scalar Net10.rte[8].queue[1] qlen:timeavg 0.017190412176289
attr interpolationmode sample-hold
attr recordingmode timeavg
attr title "queue length, timeavg"
scalar Net10.rte[8].queue[1] qlen:max 3
attr interpolationmode sample-hold
attr recordingmode max
attr title "queue length, max"
scalar Net10.rte[8].queue[1] drop:count 0
attr interpolationmode none
attr recordingmode count
attr title "dropped packet byte length, count"
attr unit bytes
scalar Net10.rte[8].queue[1] drop:sum 0
attr interpolationmode none
attr recordingmode sum
attr title "dropped packet byte length, sum"
attr unit bytes
par Net10.rte[8].queue[2] typename "\"node.L2Queue\""
par Net10.rte[8].queue[2] frameCapacity 100
par Net10.rte[8].queue[2] useCutThroughSwitching true
scalar Net10.rte[8].queue[2] rxBytes:count 0
attr interpolationmode none
attr recordingmode count
attr title "received packet byte length, count"
attr unit bytes
scalar Net10.rte[8].queue[2] rxBytes:sum 0
attr interpolationmode none
attr recordingmode sum
attr title "received packet byte length, sum"
attr unit bytes
statistic Net10.rte[8].queue[2] rxBytes:histogram
field count 0
field mean -nan
field stddev -nan
field min -nan
field max -nan
field sum 0
field sqrsum 0
attr interpolationmode none
attr recordingmode histogram
attr title "received packet byte length"
attr unit bytes
bin	-inf	0
bin	0	0
bin	1	0
scalar Net10.rte[8].queue[2] txBytes:count 0
attr interpolationmode none
attr recordingmode count
attr title "transmitting packet byte length, count"
attr unit bytes
scalar Net10.rte[8].queue[2] txBytes:sum 0
attr interpolationmode none
attr recordingmode sum
attr title "transmitting packet byte length, sum"
attr unit bytes
statistic Net10.rte[8].queue[2] txBytes:histogram
field count 0
field mean -nan
field stddev -nan
field min -nan
field max -nan
field sum 0
field sqrsum 0
attr interpolationmode none
attr recordingmode histogram
attr title "transmitting packet byte length"
attr unit bytes
bin	-inf	0
bin	0	0
bin	1	0
scalar Net10.rte[8].queue[2] busy:timeavg 0
attr interpolationmode sample-hold
attr recordingmode timeavg
attr title "server busy state, timeavg"
scalar Net10.rte[8].queue[2] qlen:timeavg 0
attr interpolationmode sample-hold
attr recordingmode timeavg
attr title "queue length, timeavg"
scalar Net10.rte[8].queue[2] qlen:max 0
attr interpolationmode sample-hold
attr recordingmode max
attr title "queue length, max"
scalar Net10.rte[8].queue[2] drop:count 0
attr interpolationmode none
attr recordingmode count
attr title "dropped packet byte length, count"
attr unit bytes
scalar Net10.rte[8].queue[2] drop:sum 0
attr interpolationmode none
attr recordingmode sum
attr title "dropped packet byte length, sum"
attr unit bytes
par Net10.rte[8] typename "\"node.Node\""
par Net10.rte[8] address 8
par Net10.rte[8] appType "\"App\""
par Net10.rte[9].app typename "\"node.App\""
par Net10.rte[9].app address 9
par Net10.rte[9].app destAddresses "\"1\""
par Net10.rte[9].app sendIaTime exponential(200ms)
attr unit s
par Net10.rte[9].app packetLength 4096byte
attr unit byte
scalar Net10.rte[9].app hopCount:mean -nan
attr interpolationmode none
attr recordingmode mean
attr title "hop count of arrived packets, mean"
scalar Net10.rte[9].app hopCount:max -nan
attr interpolationmode none
attr recordingmode max
attr title "hop count of arrived packets, max"
scalar Net10.rte[9].app endToEndDelay:mean -nan
attr interpolationmode none
attr recordingmode mean
attr title "end-to-end delay of arrived packets, mean"
attr unit s
scalar Net10.rte[9].app endToEndDelay:max -nan
attr interpolationmode none
attr recordingmode max
attr title "end-to-end delay of arrived packets, max"
attr unit s
par Net10.rte[9].routing typename "\"node.Routing\""
statistic Net10.rte[9].routing outputIf:histogram
field count 5981
field mean 2
field stddev 0
field min 2
field max 2
field sum 11962
field sqrsum 23924
attr interpolationmode none
attr recordingmode histogram
attr title "output interface for each routed packet"
bin	-inf	0
bin	1	0
bin	2	5981
bin	3	0
scalar Net10.rte[9].routing drop:count 0
attr interpolationmode none
attr recordingmode count
attr title "dropped packet byte length, count"
attr unit bytes
scalar Net10.rte[9].routing drop:sum 0
attr interpolationmode none
attr recordingmode sum
attr title "dropped packet byte length, sum"
attr unit bytes
par Net10.rte[9].queue[0] typename "\"node.L2Queue\""
par Net10.rte[9].queue[0] frameCapacity 100
par Net10.rte[9].queue[0] useCutThroughSwitching true
scalar Net10.rte[9].queue[0] rxBytes:count 0
attr interpolationmode none
attr recordingmode count
attr title "received packet byte length, count"
attr unit bytes
scalar Net10.rte[9].queue[0] rxBytes:sum 0
attr interpolationmode none
attr recordingmode sum
attr title "received packet byte length, sum"
attr unit bytes
statistic Net10.rte[9].queue[0] rxBytes:histogram
field count 0
field mean -nan
field stddev -nan
field min -nan
field max -nan
field sum 0
field sqrsum 0
attr interpolationmode none
attr recordingmode histogram
attr title "received packet byte length"
attr unit bytes
bin	-inf	0
bin	0	0
bin	1	0
scalar Net10.rte[9].queue[0] txBytes:count 0
attr interpolationmode none
attr recordingmode count
attr title "transmitting packet byte length, count"
attr unit bytes
scalar Net10.rte[9].queue[0] txBytes:sum 0
attr interpolationmode none
attr recordingmode sum
attr title "transmitting packet byte length, sum"
attr unit bytes
statistic Net10.rte[9].queue[0] txBytes:histogram
field count 0
field mean -nan
field stddev -nan
field min -nan
field max -nan
field sum 0
field sqrsum 0
attr interpolationmode none
attr recordingmode histogram
attr title "transmitting packet byte length"
attr unit bytes
bin	-inf	0
bin	0	0
bin	1	0
scalar Net10.rte[9].queue[0] busy:timeavg 0
attr interpolationmode sample-hold
attr recordingmode timeavg
attr title "server busy state, timeavg"
scalar Net10.rte[9].queue[0] qlen:timeavg 0
attr interpolationmode sample-hold
attr recordingmode timeavg
attr title "queue length, timeavg"
scalar Net10.rte[9].queue[0] qlen:max 0
attr interpolationmode sample-hold
attr recordingmode max
attr title "queue length, max"
scalar Net10.rte[9].queue[0] drop:count 0
attr interpolationmode none
attr recordingmode count
attr title "dropped packet byte length, count"
attr unit bytes
scalar Net10.rte[9].queue[0] drop:sum 0
attr interpolationmode none
attr recordingmode sum
attr title "dropped packet byte length, sum"
attr unit bytes
par Net10.rte[9].queue[1] typename "\"node.L2Queue\""
par Net10.rte[9].queue[1] frameCapacity 100
par Net10.rte[9].queue[1] useCutThroughSwitching true
scalar Net10.rte[9].queue[1] rxBytes:count 0
attr interpolationmode none
attr recordingmode count
attr title "received packet byte length, count"
attr unit bytes
scalar Net10.rte[9].queue[1] rxBytes:sum 0
attr interpolationmode none
attr recordingmode sum
attr title "received packet byte length, sum"
attr unit bytes
statistic Net10.rte[9].queue[1] rxBytes:histogram
field count 0
field mean -nan
field stddev -nan
field min -nan
field max -nan
field sum 0
field sqrsum 0
attr interpolationmode none
attr recordingmode histogram
attr title "received packet byte length"
attr unit bytes
bin	-inf	0
bin	0	0
bin	1	0
scalar Net10.rte[9].queue[1] txBytes:count 0
attr interpolationmode none
attr recordingmode count
attr title "transmitting packet byte length, count"
attr unit bytes
scalar Net10.rte[9].queue[1] txBytes:sum 0
attr interpolationmode none
attr recordingmode sum
attr title "transmitting packet byte length, sum"
attr unit bytes
statistic Net10.rte[9].queue[1] txBytes:histogram
field count 0
field mean -nan
field stddev -nan
field min -nan
field max -nan
field sum 0
field sqrsum 0
attr interpolationmode none
attr recordingmode histogram
attr title "transmitting packet byte length"
attr unit bytes
bin	-inf	0
bin	0	0
bin	1	0
scalar Net10.rte[9].queue[1] busy:timeavg 0
attr interpolationmode sample-hold
attr recordingmode timeavg
attr title "server busy state, timeavg"
scalar Net10.rte[9].queue[1] qlen:timeavg 0
attr interpolationmode sample-hold
attr recordingmode timeavg
attr title "queue length, timeavg"
scalar Net10.rte[9].queue[1] qlen:max 0
attr interpolationmode sample-hold
attr recordingmode max
attr title "queue length, max"
scalar Net10.rte[9].queue[1] drop:count 0
attr interpolationmode none
attr recordingmode count
attr title "dropped packet byte length, count"
attr unit bytes
scalar Net10.rte[9].queue[1] drop:sum 0
attr interpolationmode none
attr recordingmode sum
attr title "dropped packet byte length, sum"
attr unit bytes
par Net10.rte[9].queue[2] typename "\"node.L2Queue\""
par Net10.rte[9].queue[2] frameCapacity 100
par Net10.rte[9].queue[2] useCutThroughSwitching true
scalar Net10.rte[9].queue[2] rxBytes:count 0
attr interpolationmode none
attr recordingmode count
attr title "received packet byte length, count"
attr unit bytes
scalar Net10.rte[9].queue[2] rxBytes:sum 0
attr interpolationmode none
attr recordingmode sum
attr title "received packet byte length, sum"
attr unit bytes
statistic Net10.rte[9].queue[2] rxBytes:histogram
field count 0
field mean -nan
field stddev -nan
field min -nan
field max -nan
field sum 0
field sqrsum 0
attr interpolationmode none
attr recordingmode histogram
attr title "received packet byte length"
attr unit bytes
bin	-inf	0
bin	0	0
bin	1	0
scalar Net10.rte[9].queue[2] txBytes:count 5981
attr interpolationmode none
attr recordingmode count
attr title "transmitting packet byte length, count"
attr unit bytes
scalar Net10.rte[9].queue[2] txBytes:sum 24498176
attr interpolationmode none
attr recordingmode sum
attr title "transmitting packet byte length, sum"
attr unit bytes
statistic Net10.rte[9].queue[2] txBytes:histogram
field count 5981
field mean 4096
field stddev 0
field min 4096
field max 4096
field sum 24498176
field sqrsum 100344528896
attr interpolationmode none
attr recordingmode histogram
attr title "transmitting packet byte length"
attr unit bytes
bin	-inf	0
bin	4095	0
bin	4096	5981
bin	4097	0
scalar Net10.rte[9].queue[2] busy:timeavg 0.16331067070859
attr interpolationmode sample-hold
attr recordingmode timeavg
attr title "server busy state, timeavg"
scalar Net10.rte[9].queue[2] qlen:timeavg 0.015942661270986
attr interpolationmode sample-hold
attr recordingmode timeavg
attr title "queue length, timeavg"
scalar Net10.rte[9].queue[2] qlen:max 3
attr interpolationmode sample-hold
attr recordingmode max
attr title "queue length, max"
scalar Net10.rte[9].queue[2] drop:count 0
attr interpolationmode none
attr recordingmode count
attr title "dropped packet byte length, count"
attr unit bytes
scalar Net10.rte[9].queue[2] drop:sum 0
attr interpolationmode none
attr recordingmode sum
attr title "dropped packet byte length, sum"
attr unit bytes
par Net10.rte[9] typename "\"node.Node\""
par Net10.rte[9] address 9
par Net10.rte[9] appType "\"App\""
par Net10 typename "\"networks.Net10\""

