version 3
run Net10Experiment-35-20211207-20:10:36-304078
attr configname Net10Experiment
attr datetime 20211207-20:10:36
attr datetimef 20211207-201036
attr experiment Net10Experiment
attr inifile omnetpp.ini
attr iterationvars "$iaMean=340, $cutThrough=true"
attr iterationvarsd iaMean=340/cutThrough=true
attr iterationvarsf iaMean=340,cutThrough=true-
attr measurement "$iaMean=340, $cutThrough=true"
attr network networks.Net10
attr processid 304078
attr repetition 0
attr replication #0
attr resultdir results
attr runnumber 35
attr seedset 35
itervar cutThrough true
itervar iaMean 340
config cmdenv-redirect-output true
config network networks.Net10
config **.destAddresses "\"1\""
config **.app.sendIaTime "exponential(340 ms)"
config **.queue[*].useCutThroughSwitching true
config **.queue[*].frameCapacity 100
config **.vector-recording false
config sim-time-limit 1200s
config **.appType "\"App\""
config **.app.packetLength "4096 bytes"

par Net10.rte[1].port$o[0].channel typename "\"networks.Net10.C\""
par Net10.rte[1].port$o[0].channel disabled false
attr mutable ""
par Net10.rte[1].port$o[0].channel delay 0.000512249s
attr mutable ""
attr unit s
par Net10.rte[1].port$o[0].channel datarate 1e+06bps
attr mutable ""
attr unit bps
par Net10.rte[1].port$o[0].channel ber 0
attr mutable ""
par Net10.rte[1].port$o[0].channel per 0
attr mutable ""
par Net10.rte[0].port$o[0].channel typename "\"networks.Net10.C\""
par Net10.rte[0].port$o[0].channel disabled false
attr mutable ""
par Net10.rte[0].port$o[0].channel delay 0.000504816s
attr mutable ""
attr unit s
par Net10.rte[0].port$o[0].channel datarate 1e+06bps
attr mutable ""
attr unit bps
par Net10.rte[0].port$o[0].channel ber 0
attr mutable ""
par Net10.rte[0].port$o[0].channel per 0
attr mutable ""
par Net10.rte[0].port$o[1].channel typename "\"networks.Net10.C\""
par Net10.rte[0].port$o[1].channel disabled false
attr mutable ""
par Net10.rte[0].port$o[1].channel delay 0.000377515s
attr mutable ""
attr unit s
par Net10.rte[0].port$o[1].channel datarate 1e+06bps
attr mutable ""
attr unit bps
par Net10.rte[0].port$o[1].channel ber 0
attr mutable ""
par Net10.rte[0].port$o[1].channel per 0
attr mutable ""
par Net10.rte[2].port$o[0].channel typename "\"networks.Net10.C\""
par Net10.rte[2].port$o[0].channel disabled false
attr mutable ""
par Net10.rte[2].port$o[0].channel delay 0.000708871s
attr mutable ""
attr unit s
par Net10.rte[2].port$o[0].channel datarate 1e+06bps
attr mutable ""
attr unit bps
par Net10.rte[2].port$o[0].channel ber 0
attr mutable ""
par Net10.rte[2].port$o[0].channel per 0
attr mutable ""
par Net10.rte[2].port$o[1].channel typename "\"networks.Net10.C\""
par Net10.rte[2].port$o[1].channel disabled false
attr mutable ""
par Net10.rte[2].port$o[1].channel delay 0.000308338s
attr mutable ""
attr unit s
par Net10.rte[2].port$o[1].channel datarate 1e+06bps
attr mutable ""
attr unit bps
par Net10.rte[2].port$o[1].channel ber 0
attr mutable ""
par Net10.rte[2].port$o[1].channel per 0
attr mutable ""
par Net10.rte[5].port$o[0].channel typename "\"networks.Net10.C\""
par Net10.rte[5].port$o[0].channel disabled false
attr mutable ""
par Net10.rte[5].port$o[0].channel delay 0.000321496s
attr mutable ""
attr unit s
par Net10.rte[5].port$o[0].channel datarate 1e+06bps
attr mutable ""
attr unit bps
par Net10.rte[5].port$o[0].channel ber 0
attr mutable ""
par Net10.rte[5].port$o[0].channel per 0
attr mutable ""
par Net10.rte[5].port$o[1].channel typename "\"networks.Net10.C\""
par Net10.rte[5].port$o[1].channel disabled false
attr mutable ""
par Net10.rte[5].port$o[1].channel delay 0.000349682s
attr mutable ""
attr unit s
par Net10.rte[5].port$o[1].channel datarate 1e+06bps
attr mutable ""
attr unit bps
par Net10.rte[5].port$o[1].channel ber 0
attr mutable ""
par Net10.rte[5].port$o[1].channel per 0
attr mutable ""
par Net10.rte[7].port$o[0].channel typename "\"networks.Net10.C\""
par Net10.rte[7].port$o[0].channel disabled false
attr mutable ""
par Net10.rte[7].port$o[0].channel delay 0.000125313s
attr mutable ""
attr unit s
par Net10.rte[7].port$o[0].channel datarate 1e+06bps
attr mutable ""
attr unit bps
par Net10.rte[7].port$o[0].channel ber 0
attr mutable ""
par Net10.rte[7].port$o[0].channel per 0
attr mutable ""
par Net10.rte[7].port$o[1].channel typename "\"networks.Net10.C\""
par Net10.rte[7].port$o[1].channel disabled false
attr mutable ""
par Net10.rte[7].port$o[1].channel delay 0.000835511s
attr mutable ""
attr unit s
par Net10.rte[7].port$o[1].channel datarate 1e+06bps
attr mutable ""
attr unit bps
par Net10.rte[7].port$o[1].channel ber 0
attr mutable ""
par Net10.rte[7].port$o[1].channel per 0
attr mutable ""
par Net10.rte[9].port$o[0].channel typename "\"networks.Net10.C\""
par Net10.rte[9].port$o[0].channel disabled false
attr mutable ""
par Net10.rte[9].port$o[0].channel delay 0.000726475s
attr mutable ""
attr unit s
par Net10.rte[9].port$o[0].channel datarate 1e+06bps
attr mutable ""
attr unit bps
par Net10.rte[9].port$o[0].channel ber 0
attr mutable ""
par Net10.rte[9].port$o[0].channel per 0
attr mutable ""
par Net10.rte[9].port$o[1].channel typename "\"networks.Net10.C\""
par Net10.rte[9].port$o[1].channel disabled false
attr mutable ""
par Net10.rte[9].port$o[1].channel delay 0.000200212s
attr mutable ""
attr unit s
par Net10.rte[9].port$o[1].channel datarate 1e+06bps
attr mutable ""
attr unit bps
par Net10.rte[9].port$o[1].channel ber 0
attr mutable ""
par Net10.rte[9].port$o[1].channel per 0
attr mutable ""
par Net10.rte[8].port$o[0].channel typename "\"networks.Net10.C\""
par Net10.rte[8].port$o[0].channel disabled false
attr mutable ""
par Net10.rte[8].port$o[0].channel delay 0.0005651s
attr mutable ""
attr unit s
par Net10.rte[8].port$o[0].channel datarate 1e+06bps
attr mutable ""
attr unit bps
par Net10.rte[8].port$o[0].channel ber 0
attr mutable ""
par Net10.rte[8].port$o[0].channel per 0
attr mutable ""
par Net10.rte[8].port$o[1].channel typename "\"networks.Net10.C\""
par Net10.rte[8].port$o[1].channel disabled false
attr mutable ""
par Net10.rte[8].port$o[1].channel delay 0.000663794s
attr mutable ""
attr unit s
par Net10.rte[8].port$o[1].channel datarate 1e+06bps
attr mutable ""
attr unit bps
par Net10.rte[8].port$o[1].channel ber 0
attr mutable ""
par Net10.rte[8].port$o[1].channel per 0
attr mutable ""
par Net10.rte[4].port$o[0].channel typename "\"networks.Net10.C\""
par Net10.rte[4].port$o[0].channel disabled false
attr mutable ""
par Net10.rte[4].port$o[0].channel delay 0.00064437s
attr mutable ""
attr unit s
par Net10.rte[4].port$o[0].channel datarate 1e+06bps
attr mutable ""
attr unit bps
par Net10.rte[4].port$o[0].channel ber 0
attr mutable ""
par Net10.rte[4].port$o[0].channel per 0
attr mutable ""
par Net10.rte[4].port$o[1].channel typename "\"networks.Net10.C\""
par Net10.rte[4].port$o[1].channel disabled false
attr mutable ""
par Net10.rte[4].port$o[1].channel delay 0.000349109s
attr mutable ""
attr unit s
par Net10.rte[4].port$o[1].channel datarate 1e+06bps
attr mutable ""
attr unit bps
par Net10.rte[4].port$o[1].channel ber 0
attr mutable ""
par Net10.rte[4].port$o[1].channel per 0
attr mutable ""
par Net10.rte[3].port$o[0].channel typename "\"networks.Net10.C\""
par Net10.rte[3].port$o[0].channel disabled false
attr mutable ""
par Net10.rte[3].port$o[0].channel delay 0.000354047s
attr mutable ""
attr unit s
par Net10.rte[3].port$o[0].channel datarate 1e+06bps
attr mutable ""
attr unit bps
par Net10.rte[3].port$o[0].channel ber 0
attr mutable ""
par Net10.rte[3].port$o[0].channel per 0
attr mutable ""
par Net10.rte[3].port$o[1].channel typename "\"networks.Net10.C\""
par Net10.rte[3].port$o[1].channel disabled false
attr mutable ""
par Net10.rte[3].port$o[1].channel delay 0.000713957s
attr mutable ""
attr unit s
par Net10.rte[3].port$o[1].channel datarate 1e+06bps
attr mutable ""
attr unit bps
par Net10.rte[3].port$o[1].channel ber 0
attr mutable ""
par Net10.rte[3].port$o[1].channel per 0
attr mutable ""
par Net10.rte[1].port$o[1].channel typename "\"networks.Net10.C\""
par Net10.rte[1].port$o[1].channel disabled false
attr mutable ""
par Net10.rte[1].port$o[1].channel delay 0.000881848s
attr mutable ""
attr unit s
par Net10.rte[1].port$o[1].channel datarate 1e+06bps
attr mutable ""
attr unit bps
par Net10.rte[1].port$o[1].channel ber 0
attr mutable ""
par Net10.rte[1].port$o[1].channel per 0
attr mutable ""
par Net10.rte[3].port$o[2].channel typename "\"networks.Net10.C\""
par Net10.rte[3].port$o[2].channel disabled false
attr mutable ""
par Net10.rte[3].port$o[2].channel delay 0.000711074s
attr mutable ""
attr unit s
par Net10.rte[3].port$o[2].channel datarate 1e+06bps
attr mutable ""
attr unit bps
par Net10.rte[3].port$o[2].channel ber 0
attr mutable ""
par Net10.rte[3].port$o[2].channel per 0
attr mutable ""
par Net10.rte[2].port$o[2].channel typename "\"networks.Net10.C\""
par Net10.rte[2].port$o[2].channel disabled false
attr mutable ""
par Net10.rte[2].port$o[2].channel delay 0.000995391s
attr mutable ""
attr unit s
par Net10.rte[2].port$o[2].channel datarate 1e+06bps
attr mutable ""
attr unit bps
par Net10.rte[2].port$o[2].channel ber 0
attr mutable ""
par Net10.rte[2].port$o[2].channel per 0
attr mutable ""
par Net10.rte[2].port$o[3].channel typename "\"networks.Net10.C\""
par Net10.rte[2].port$o[3].channel disabled false
attr mutable ""
par Net10.rte[2].port$o[3].channel delay 0.000817046s
attr mutable ""
attr unit s
par Net10.rte[2].port$o[3].channel datarate 1e+06bps
attr mutable ""
attr unit bps
par Net10.rte[2].port$o[3].channel ber 0
attr mutable ""
par Net10.rte[2].port$o[3].channel per 0
attr mutable ""
par Net10.rte[4].port$o[2].channel typename "\"networks.Net10.C\""
par Net10.rte[4].port$o[2].channel disabled false
attr mutable ""
par Net10.rte[4].port$o[2].channel delay 0.000802785s
attr mutable ""
attr unit s
par Net10.rte[4].port$o[2].channel datarate 1e+06bps
attr mutable ""
attr unit bps
par Net10.rte[4].port$o[2].channel ber 0
attr mutable ""
par Net10.rte[4].port$o[2].channel per 0
attr mutable ""
par Net10.rte[4].port$o[3].channel typename "\"networks.Net10.C\""
par Net10.rte[4].port$o[3].channel disabled false
attr mutable ""
par Net10.rte[4].port$o[3].channel delay 0.000141222s
attr mutable ""
attr unit s
par Net10.rte[4].port$o[3].channel datarate 1e+06bps
attr mutable ""
attr unit bps
par Net10.rte[4].port$o[3].channel ber 0
attr mutable ""
par Net10.rte[4].port$o[3].channel per 0
attr mutable ""
par Net10.rte[6].port$o[0].channel typename "\"networks.Net10.C\""
par Net10.rte[6].port$o[0].channel disabled false
attr mutable ""
par Net10.rte[6].port$o[0].channel delay 0.000272159s
attr mutable ""
attr unit s
par Net10.rte[6].port$o[0].channel datarate 1e+06bps
attr mutable ""
attr unit bps
par Net10.rte[6].port$o[0].channel ber 0
attr mutable ""
par Net10.rte[6].port$o[0].channel per 0
attr mutable ""
par Net10.rte[6].port$o[1].channel typename "\"networks.Net10.C\""
par Net10.rte[6].port$o[1].channel disabled false
attr mutable ""
par Net10.rte[6].port$o[1].channel delay 0.000921338s
attr mutable ""
attr unit s
par Net10.rte[6].port$o[1].channel datarate 1e+06bps
attr mutable ""
attr unit bps
par Net10.rte[6].port$o[1].channel ber 0
attr mutable ""
par Net10.rte[6].port$o[1].channel per 0
attr mutable ""
par Net10.rte[8].port$o[2].channel typename "\"networks.Net10.C\""
par Net10.rte[8].port$o[2].channel disabled false
attr mutable ""
par Net10.rte[8].port$o[2].channel delay 0.000971272s
attr mutable ""
attr unit s
par Net10.rte[8].port$o[2].channel datarate 1e+06bps
attr mutable ""
attr unit bps
par Net10.rte[8].port$o[2].channel ber 0
attr mutable ""
par Net10.rte[8].port$o[2].channel per 0
attr mutable ""
par Net10.rte[9].port$o[2].channel typename "\"networks.Net10.C\""
par Net10.rte[9].port$o[2].channel disabled false
attr mutable ""
par Net10.rte[9].port$o[2].channel delay 0.000292434s
attr mutable ""
attr unit s
par Net10.rte[9].port$o[2].channel datarate 1e+06bps
attr mutable ""
attr unit bps
par Net10.rte[9].port$o[2].channel ber 0
attr mutable ""
par Net10.rte[9].port$o[2].channel per 0
attr mutable ""
par Net10.rte[6].port$o[2].channel typename "\"networks.Net10.C\""
par Net10.rte[6].port$o[2].channel disabled false
attr mutable ""
par Net10.rte[6].port$o[2].channel delay 0.000906616s
attr mutable ""
attr unit s
par Net10.rte[6].port$o[2].channel datarate 1e+06bps
attr mutable ""
attr unit bps
par Net10.rte[6].port$o[2].channel ber 0
attr mutable ""
par Net10.rte[6].port$o[2].channel per 0
attr mutable ""
par Net10.rte[6].port$o[3].channel typename "\"networks.Net10.C\""
par Net10.rte[6].port$o[3].channel disabled false
attr mutable ""
par Net10.rte[6].port$o[3].channel delay 0.000373274s
attr mutable ""
attr unit s
par Net10.rte[6].port$o[3].channel datarate 1e+06bps
attr mutable ""
attr unit bps
par Net10.rte[6].port$o[3].channel ber 0
attr mutable ""
par Net10.rte[6].port$o[3].channel per 0
attr mutable ""
par Net10.rte[7].port$o[2].channel typename "\"networks.Net10.C\""
par Net10.rte[7].port$o[2].channel disabled false
attr mutable ""
par Net10.rte[7].port$o[2].channel delay 0.000741564s
attr mutable ""
attr unit s
par Net10.rte[7].port$o[2].channel datarate 1e+06bps
attr mutable ""
attr unit bps
par Net10.rte[7].port$o[2].channel ber 0
attr mutable ""
par Net10.rte[7].port$o[2].channel per 0
attr mutable ""
par Net10.rte[5].port$o[2].channel typename "\"networks.Net10.C\""
par Net10.rte[5].port$o[2].channel disabled false
attr mutable ""
par Net10.rte[5].port$o[2].channel delay 0.000990157s
attr mutable ""
attr unit s
par Net10.rte[5].port$o[2].channel datarate 1e+06bps
attr mutable ""
attr unit bps
par Net10.rte[5].port$o[2].channel ber 0
attr mutable ""
par Net10.rte[5].port$o[2].channel per 0
attr mutable ""
par Net10.rte[6].port$o[4].channel typename "\"networks.Net10.C\""
par Net10.rte[6].port$o[4].channel disabled false
attr mutable ""
par Net10.rte[6].port$o[4].channel delay 0.000448257s
attr mutable ""
attr unit s
par Net10.rte[6].port$o[4].channel datarate 1e+06bps
attr mutable ""
attr unit bps
par Net10.rte[6].port$o[4].channel ber 0
attr mutable ""
par Net10.rte[6].port$o[4].channel per 0
attr mutable ""
par Net10.rte[0].port$o[2].channel typename "\"networks.Net10.C\""
par Net10.rte[0].port$o[2].channel disabled false
attr mutable ""
par Net10.rte[0].port$o[2].channel delay 0.000267293s
attr mutable ""
attr unit s
par Net10.rte[0].port$o[2].channel datarate 1e+06bps
attr mutable ""
attr unit bps
par Net10.rte[0].port$o[2].channel ber 0
attr mutable ""
par Net10.rte[0].port$o[2].channel per 0
attr mutable ""
par Net10.rte[5].port$o[3].channel typename "\"networks.Net10.C\""
par Net10.rte[5].port$o[3].channel disabled false
attr mutable ""
par Net10.rte[5].port$o[3].channel delay 0.000999369s
attr mutable ""
attr unit s
par Net10.rte[5].port$o[3].channel datarate 1e+06bps
attr mutable ""
attr unit bps
par Net10.rte[5].port$o[3].channel ber 0
attr mutable ""
par Net10.rte[5].port$o[3].channel per 0
attr mutable ""
par Net10.rte[1].port$o[2].channel typename "\"networks.Net10.C\""
par Net10.rte[1].port$o[2].channel disabled false
attr mutable ""
par Net10.rte[1].port$o[2].channel delay 0.000989852s
attr mutable ""
attr unit s
par Net10.rte[1].port$o[2].channel datarate 1e+06bps
attr mutable ""
attr unit bps
par Net10.rte[1].port$o[2].channel ber 0
attr mutable ""
par Net10.rte[1].port$o[2].channel per 0
attr mutable ""
par Net10.rte[2].port$o[4].channel typename "\"networks.Net10.C\""
par Net10.rte[2].port$o[4].channel disabled false
attr mutable ""
par Net10.rte[2].port$o[4].channel delay 0.000123454s
attr mutable ""
attr unit s
par Net10.rte[2].port$o[4].channel datarate 1e+06bps
attr mutable ""
attr unit bps
par Net10.rte[2].port$o[4].channel ber 0
attr mutable ""
par Net10.rte[2].port$o[4].channel per 0
attr mutable ""
par Net10.rte[0].app typename "\"node.App\""
par Net10.rte[0].app address 0
par Net10.rte[0].app destAddresses "\"1\""
par Net10.rte[0].app sendIaTime exponential(340ms)
attr unit s
par Net10.rte[0].app packetLength 4096byte
attr unit byte
scalar Net10.rte[0].app hopCount:mean -nan
attr interpolationmode none
attr recordingmode mean
attr title "hop count of arrived packets, mean"
scalar Net10.rte[0].app hopCount:max -nan
attr interpolationmode none
attr recordingmode max
attr title "hop count of arrived packets, max"
scalar Net10.rte[0].app endToEndDelay:mean -nan
attr interpolationmode none
attr recordingmode mean
attr title "end-to-end delay of arrived packets, mean"
attr unit s
scalar Net10.rte[0].app endToEndDelay:max -nan
attr interpolationmode none
attr recordingmode max
attr title "end-to-end delay of arrived packets, max"
attr unit s
par Net10.rte[0].routing typename "\"node.Routing\""
statistic Net10.rte[0].routing outputIf:histogram
field count 17762
field mean 0
field stddev 0
field min 0
field max 0
field sum 0
field sqrsum 0
attr interpolationmode none
attr recordingmode histogram
attr title "output interface for each routed packet"
bin	-inf	0
bin	-0.5	0
bin	-0.48	0
bin	-0.46	0
bin	-0.44	0
bin	-0.42	0
bin	-0.4	0
bin	-0.38	0
bin	-0.36	0
bin	-0.34	0
bin	-0.32	0
bin	-0.3	0
bin	-0.28	0
bin	-0.26	0
bin	-0.24	0
bin	-0.22	0
bin	-0.2	0
bin	-0.18	0
bin	-0.16	0
bin	-0.14	0
bin	-0.12	0
bin	-0.1	0
bin	-0.08	0
bin	-0.06	0
bin	-0.04	0
bin	-0.02	0
bin	0	17762
bin	0.02	0
bin	0.04	0
bin	0.06	0
bin	0.08	0
bin	0.1	0
bin	0.12	0
bin	0.14	0
bin	0.16	0
bin	0.18	0
bin	0.2	0
bin	0.22	0
bin	0.24	0
bin	0.26	0
bin	0.28	0
bin	0.3	0
bin	0.32	0
bin	0.34	0
bin	0.36	0
bin	0.38	0
bin	0.4	0
bin	0.42	0
bin	0.44	0
bin	0.46	0
bin	0.48	0
bin	0.5	0
scalar Net10.rte[0].routing drop:count 0
attr interpolationmode none
attr recordingmode count
attr title "dropped packet byte length, count"
attr unit bytes
scalar Net10.rte[0].routing drop:sum 0
attr interpolationmode none
attr recordingmode sum
attr title "dropped packet byte length, sum"
attr unit bytes
par Net10.rte[0].queue[0] typename "\"node.L2Queue\""
par Net10.rte[0].queue[0] frameCapacity 100
par Net10.rte[0].queue[0] useCutThroughSwitching true
scalar Net10.rte[0].queue[0] rxBytes:count 0
attr interpolationmode none
attr recordingmode count
attr title "received packet byte length, count"
attr unit bytes
scalar Net10.rte[0].queue[0] rxBytes:sum 0
attr interpolationmode none
attr recordingmode sum
attr title "received packet byte length, sum"
attr unit bytes
statistic Net10.rte[0].queue[0] rxBytes:histogram
field count 0
field mean -nan
field stddev -nan
field min -nan
field max -nan
field sum 0
field sqrsum 0
attr interpolationmode none
attr recordingmode histogram
attr title "received packet byte length"
attr unit bytes
bin	-inf	0
bin	0	0
bin	1	0
scalar Net10.rte[0].queue[0] txBytes:count 17762
attr interpolationmode none
attr recordingmode count
attr title "transmitting packet byte length, count"
attr unit bytes
scalar Net10.rte[0].queue[0] txBytes:sum 72753152
attr interpolationmode none
attr recordingmode sum
attr title "transmitting packet byte length, sum"
attr unit bytes
statistic Net10.rte[0].queue[0] txBytes:histogram
field count 17762
field mean 4096
field stddev 0
field min 4096
field max 4096
field sum 72753152
field sqrsum 297996910592
attr interpolationmode none
attr recordingmode histogram
attr title "transmitting packet byte length"
attr unit bytes
bin	-inf	0
bin	4095	0
bin	4096	17762
bin	4097	0
scalar Net10.rte[0].queue[0] busy:timeavg 0.48501749259515
attr interpolationmode sample-hold
attr recordingmode timeavg
attr title "server busy state, timeavg"
scalar Net10.rte[0].queue[0] qlen:timeavg 0.10361711588989
attr interpolationmode sample-hold
attr recordingmode timeavg
attr title "queue length, timeavg"
scalar Net10.rte[0].queue[0] qlen:max 5
attr interpolationmode sample-hold
attr recordingmode max
attr title "queue length, max"
scalar Net10.rte[0].queue[0] drop:count 0
attr interpolationmode none
attr recordingmode count
attr title "dropped packet byte length, count"
attr unit bytes
scalar Net10.rte[0].queue[0] drop:sum 0
attr interpolationmode none
attr recordingmode sum
attr title "dropped packet byte length, sum"
attr unit bytes
par Net10.rte[0].queue[1] typename "\"node.L2Queue\""
par Net10.rte[0].queue[1] frameCapacity 100
par Net10.rte[0].queue[1] useCutThroughSwitching true
scalar Net10.rte[0].queue[1] rxBytes:count 0
attr interpolationmode none
attr recordingmode count
attr title "received packet byte length, count"
attr unit bytes
scalar Net10.rte[0].queue[1] rxBytes:sum 0
attr interpolationmode none
attr recordingmode sum
attr title "received packet byte length, sum"
attr unit bytes
statistic Net10.rte[0].queue[1] rxBytes:histogram
field count 0
field mean -nan
field stddev -nan
field min -nan
field max -nan
field sum 0
field sqrsum 0
attr interpolationmode none
attr recordingmode histogram
attr title "received packet byte length"
attr unit bytes
bin	-inf	0
bin	0	0
bin	1	0
scalar Net10.rte[0].queue[1] txBytes:count 0
attr interpolationmode none
attr recordingmode count
attr title "transmitting packet byte length, count"
attr unit bytes
scalar Net10.rte[0].queue[1] txBytes:sum 0
attr interpolationmode none
attr recordingmode sum
attr title "transmitting packet byte length, sum"
attr unit bytes
statistic Net10.rte[0].queue[1] txBytes:histogram
field count 0
field mean -nan
field stddev -nan
field min -nan
field max -nan
field sum 0
field sqrsum 0
attr interpolationmode none
attr recordingmode histogram
attr title "transmitting packet byte length"
attr unit bytes
bin	-inf	0
bin	0	0
bin	1	0
scalar Net10.rte[0].queue[1] busy:timeavg 0
attr interpolationmode sample-hold
attr recordingmode timeavg
attr title "server busy state, timeavg"
scalar Net10.rte[0].queue[1] qlen:timeavg 0
attr interpolationmode sample-hold
attr recordingmode timeavg
attr title "queue length, timeavg"
scalar Net10.rte[0].queue[1] qlen:max 0
attr interpolationmode sample-hold
attr recordingmode max
attr title "queue length, max"
scalar Net10.rte[0].queue[1] drop:count 0
attr interpolationmode none
attr recordingmode count
attr title "dropped packet byte length, count"
attr unit bytes
scalar Net10.rte[0].queue[1] drop:sum 0
attr interpolationmode none
attr recordingmode sum
attr title "dropped packet byte length, sum"
attr unit bytes
par Net10.rte[0].queue[2] typename "\"node.L2Queue\""
par Net10.rte[0].queue[2] frameCapacity 100
par Net10.rte[0].queue[2] useCutThroughSwitching true
scalar Net10.rte[0].queue[2] rxBytes:count 14200
attr interpolationmode none
attr recordingmode count
attr title "received packet byte length, count"
attr unit bytes
scalar Net10.rte[0].queue[2] rxBytes:sum 58163200
attr interpolationmode none
attr recordingmode sum
attr title "received packet byte length, sum"
attr unit bytes
statistic Net10.rte[0].queue[2] rxBytes:histogram
field count 14200
field mean 4096
field stddev 0
field min 4096
field max 4096
field sum 58163200
field sqrsum 238236467200
attr interpolationmode none
attr recordingmode histogram
attr title "received packet byte length"
attr unit bytes
bin	-inf	0
bin	4095	0
bin	4096	14200
bin	4097	0
scalar Net10.rte[0].queue[2] txBytes:count 0
attr interpolationmode none
attr recordingmode count
attr title "transmitting packet byte length, count"
attr unit bytes
scalar Net10.rte[0].queue[2] txBytes:sum 0
attr interpolationmode none
attr recordingmode sum
attr title "transmitting packet byte length, sum"
attr unit bytes
statistic Net10.rte[0].queue[2] txBytes:histogram
field count 0
field mean -nan
field stddev -nan
field min -nan
field max -nan
field sum 0
field sqrsum 0
attr interpolationmode none
attr recordingmode histogram
attr title "transmitting packet byte length"
attr unit bytes
bin	-inf	0
bin	0	0
bin	1	0
scalar Net10.rte[0].queue[2] busy:timeavg 0
attr interpolationmode sample-hold
attr recordingmode timeavg
attr title "server busy state, timeavg"
scalar Net10.rte[0].queue[2] qlen:timeavg 0
attr interpolationmode sample-hold
attr recordingmode timeavg
attr title "queue length, timeavg"
scalar Net10.rte[0].queue[2] qlen:max 0
attr interpolationmode sample-hold
attr recordingmode max
attr title "queue length, max"
scalar Net10.rte[0].queue[2] drop:count 0
attr interpolationmode none
attr recordingmode count
attr title "dropped packet byte length, count"
attr unit bytes
scalar Net10.rte[0].queue[2] drop:sum 0
attr interpolationmode none
attr recordingmode sum
attr title "dropped packet byte length, sum"
attr unit bytes
par Net10.rte[0] typename "\"node.Node\""
par Net10.rte[0] address 0
par Net10.rte[0] appType "\"App\""
par Net10.rte[1].app typename "\"node.App\""
par Net10.rte[1].app address 1
par Net10.rte[1].app destAddresses "\"1\""
par Net10.rte[1].app sendIaTime exponential(340ms)
attr unit s
par Net10.rte[1].app packetLength 4096byte
attr unit byte
scalar Net10.rte[1].app hopCount:mean 2.0064165983549
attr interpolationmode none
attr recordingmode mean
attr title "hop count of arrived packets, mean"
scalar Net10.rte[1].app hopCount:max 4
attr interpolationmode none
attr recordingmode max
attr title "hop count of arrived packets, max"
scalar Net10.rte[1].app endToEndDelay:mean 0.011155298355291
attr interpolationmode none
attr recordingmode mean
attr title "end-to-end delay of arrived packets, mean"
attr unit s
scalar Net10.rte[1].app endToEndDelay:max 0.235355501102
attr interpolationmode none
attr recordingmode max
attr title "end-to-end delay of arrived packets, max"
attr unit s
par Net10.rte[1].routing typename "\"node.Routing\""
statistic Net10.rte[1].routing outputIf:histogram
field count 35377
field mean -1
field stddev 0
field min -1
field max -1
field sum -35377
field sqrsum 35377
attr interpolationmode none
attr recordingmode histogram
attr title "output interface for each routed packet"
bin	-inf	0
bin	-2	0
bin	-1	35377
bin	0	0
scalar Net10.rte[1].routing drop:count 0
attr interpolationmode none
attr recordingmode count
attr title "dropped packet byte length, count"
attr unit bytes
scalar Net10.rte[1].routing drop:sum 0
attr interpolationmode none
attr recordingmode sum
attr title "dropped packet byte length, sum"
attr unit bytes
par Net10.rte[1].queue[0] typename "\"node.L2Queue\""
par Net10.rte[1].queue[0] frameCapacity 100
par Net10.rte[1].queue[0] useCutThroughSwitching true
scalar Net10.rte[1].queue[0] rxBytes:count 17762
attr interpolationmode none
attr recordingmode count
attr title "received packet byte length, count"
attr unit bytes
scalar Net10.rte[1].queue[0] rxBytes:sum 72753152
attr interpolationmode none
attr recordingmode sum
attr title "received packet byte length, sum"
attr unit bytes
statistic Net10.rte[1].queue[0] rxBytes:histogram
field count 17762
field mean 4096
field stddev 0
field min 4096
field max 4096
field sum 72753152
field sqrsum 297996910592
attr interpolationmode none
attr recordingmode histogram
attr title "received packet byte length"
attr unit bytes
bin	-inf	0
bin	4095	0
bin	4096	17762
bin	4097	0
scalar Net10.rte[1].queue[0] txBytes:count 0
attr interpolationmode none
attr recordingmode count
attr title "transmitting packet byte length, count"
attr unit bytes
scalar Net10.rte[1].queue[0] txBytes:sum 0
attr interpolationmode none
attr recordingmode sum
attr title "transmitting packet byte length, sum"
attr unit bytes
statistic Net10.rte[1].queue[0] txBytes:histogram
field count 0
field mean -nan
field stddev -nan
field min -nan
field max -nan
field sum 0
field sqrsum 0
attr interpolationmode none
attr recordingmode histogram
attr title "transmitting packet byte length"
attr unit bytes
bin	-inf	0
bin	0	0
bin	1	0
scalar Net10.rte[1].queue[0] busy:timeavg 0
attr interpolationmode sample-hold
attr recordingmode timeavg
attr title "server busy state, timeavg"
scalar Net10.rte[1].queue[0] qlen:timeavg 0
attr interpolationmode sample-hold
attr recordingmode timeavg
attr title "queue length, timeavg"
scalar Net10.rte[1].queue[0] qlen:max 0
attr interpolationmode sample-hold
attr recordingmode max
attr title "queue length, max"
scalar Net10.rte[1].queue[0] drop:count 0
attr interpolationmode none
attr recordingmode count
attr title "dropped packet byte length, count"
attr unit bytes
scalar Net10.rte[1].queue[0] drop:sum 0
attr interpolationmode none
attr recordingmode sum
attr title "dropped packet byte length, sum"
attr unit bytes
par Net10.rte[1].queue[1] typename "\"node.L2Queue\""
par Net10.rte[1].queue[1] frameCapacity 100
par Net10.rte[1].queue[1] useCutThroughSwitching true
scalar Net10.rte[1].queue[1] rxBytes:count 3472
attr interpolationmode none
attr recordingmode count
attr title "received packet byte length, count"
attr unit bytes
scalar Net10.rte[1].queue[1] rxBytes:sum 14221312
attr interpolationmode none
attr recordingmode sum
attr title "received packet byte length, sum"
attr unit bytes
statistic Net10.rte[1].queue[1] rxBytes:histogram
field count 3472
field mean 4096
field stddev 0
field min 4096
field max 4096
field sum 14221312
field sqrsum 58250493952
attr interpolationmode none
attr recordingmode histogram
attr title "received packet byte length"
attr unit bytes
bin	-inf	0
bin	4095	0
bin	4096	3472
bin	4097	0
scalar Net10.rte[1].queue[1] txBytes:count 0
attr interpolationmode none
attr recordingmode count
attr title "transmitting packet byte length, count"
attr unit bytes
scalar Net10.rte[1].queue[1] txBytes:sum 0
attr interpolationmode none
attr recordingmode sum
attr title "transmitting packet byte length, sum"
attr unit bytes
statistic Net10.rte[1].queue[1] txBytes:histogram
field count 0
field mean -nan
field stddev -nan
field min -nan
field max -nan
field sum 0
field sqrsum 0
attr interpolationmode none
attr recordingmode histogram
attr title "transmitting packet byte length"
attr unit bytes
bin	-inf	0
bin	0	0
bin	1	0
scalar Net10.rte[1].queue[1] busy:timeavg 0
attr interpolationmode sample-hold
attr recordingmode timeavg
attr title "server busy state, timeavg"
scalar Net10.rte[1].queue[1] qlen:timeavg 0
attr interpolationmode sample-hold
attr recordingmode timeavg
attr title "queue length, timeavg"
scalar Net10.rte[1].queue[1] qlen:max 0
attr interpolationmode sample-hold
attr recordingmode max
attr title "queue length, max"
scalar Net10.rte[1].queue[1] drop:count 0
attr interpolationmode none
attr recordingmode count
attr title "dropped packet byte length, count"
attr unit bytes
scalar Net10.rte[1].queue[1] drop:sum 0
attr interpolationmode none
attr recordingmode sum
attr title "dropped packet byte length, sum"
attr unit bytes
par Net10.rte[1].queue[2] typename "\"node.L2Queue\""
par Net10.rte[1].queue[2] frameCapacity 100
par Net10.rte[1].queue[2] useCutThroughSwitching true
scalar Net10.rte[1].queue[2] rxBytes:count 10707
attr interpolationmode none
attr recordingmode count
attr title "received packet byte length, count"
attr unit bytes
scalar Net10.rte[1].queue[2] rxBytes:sum 43855872
attr interpolationmode none
attr recordingmode sum
attr title "received packet byte length, sum"
attr unit bytes
statistic Net10.rte[1].queue[2] rxBytes:histogram
field count 10707
field mean 4096
field stddev 0
field min 4096
field max 4096
field sum 43855872
field sqrsum 179633651712
attr interpolationmode none
attr recordingmode histogram
attr title "received packet byte length"
attr unit bytes
bin	-inf	0
bin	4095	0
bin	4096	10707
bin	4097	0
scalar Net10.rte[1].queue[2] txBytes:count 0
attr interpolationmode none
attr recordingmode count
attr title "transmitting packet byte length, count"
attr unit bytes
scalar Net10.rte[1].queue[2] txBytes:sum 0
attr interpolationmode none
attr recordingmode sum
attr title "transmitting packet byte length, sum"
attr unit bytes
statistic Net10.rte[1].queue[2] txBytes:histogram
field count 0
field mean -nan
field stddev -nan
field min -nan
field max -nan
field sum 0
field sqrsum 0
attr interpolationmode none
attr recordingmode histogram
attr title "transmitting packet byte length"
attr unit bytes
bin	-inf	0
bin	0	0
bin	1	0
scalar Net10.rte[1].queue[2] busy:timeavg 0
attr interpolationmode sample-hold
attr recordingmode timeavg
attr title "server busy state, timeavg"
scalar Net10.rte[1].queue[2] qlen:timeavg 0
attr interpolationmode sample-hold
attr recordingmode timeavg
attr title "queue length, timeavg"
scalar Net10.rte[1].queue[2] qlen:max 0
attr interpolationmode sample-hold
attr recordingmode max
attr title "queue length, max"
scalar Net10.rte[1].queue[2] drop:count 0
attr interpolationmode none
attr recordingmode count
attr title "dropped packet byte length, count"
attr unit bytes
scalar Net10.rte[1].queue[2] drop:sum 0
attr interpolationmode none
attr recordingmode sum
attr title "dropped packet byte length, sum"
attr unit bytes
par Net10.rte[1] typename "\"node.Node\""
par Net10.rte[1] address 1
par Net10.rte[1] appType "\"App\""
par Net10.rte[2].app typename "\"node.App\""
par Net10.rte[2].app address 2
par Net10.rte[2].app destAddresses "\"1\""
par Net10.rte[2].app sendIaTime exponential(340ms)
attr unit s
par Net10.rte[2].app packetLength 4096byte
attr unit byte
scalar Net10.rte[2].app hopCount:mean -nan
attr interpolationmode none
attr recordingmode mean
attr title "hop count of arrived packets, mean"
scalar Net10.rte[2].app hopCount:max -nan
attr interpolationmode none
attr recordingmode max
attr title "hop count of arrived packets, max"
scalar Net10.rte[2].app endToEndDelay:mean -nan
attr interpolationmode none
attr recordingmode mean
attr title "end-to-end delay of arrived packets, mean"
attr unit s
scalar Net10.rte[2].app endToEndDelay:max -nan
attr interpolationmode none
attr recordingmode max
attr title "end-to-end delay of arrived packets, max"
attr unit s
par Net10.rte[2].routing typename "\"node.Routing\""
statistic Net10.rte[2].routing outputIf:histogram
field count 10707
field mean 4
field stddev 0
field min 4
field max 4
field sum 42828
field sqrsum 171312
attr interpolationmode none
attr recordingmode histogram
attr title "output interface for each routed packet"
bin	-inf	0
bin	3	0
bin	4	10707
bin	5	0
scalar Net10.rte[2].routing drop:count 0
attr interpolationmode none
attr recordingmode count
attr title "dropped packet byte length, count"
attr unit bytes
scalar Net10.rte[2].routing drop:sum 0
attr interpolationmode none
attr recordingmode sum
attr title "dropped packet byte length, sum"
attr unit bytes
par Net10.rte[2].queue[0] typename "\"node.L2Queue\""
par Net10.rte[2].queue[0] frameCapacity 100
par Net10.rte[2].queue[0] useCutThroughSwitching true
scalar Net10.rte[2].queue[0] rxBytes:count 0
attr interpolationmode none
attr recordingmode count
attr title "received packet byte length, count"
attr unit bytes
scalar Net10.rte[2].queue[0] rxBytes:sum 0
attr interpolationmode none
attr recordingmode sum
attr title "received packet byte length, sum"
attr unit bytes
statistic Net10.rte[2].queue[0] rxBytes:histogram
field count 0
field mean -nan
field stddev -nan
field min -nan
field max -nan
field sum 0
field sqrsum 0
attr interpolationmode none
attr recordingmode histogram
attr title "received packet byte length"
attr unit bytes
bin	-inf	0
bin	0	0
bin	1	0
scalar Net10.rte[2].queue[0] txBytes:count 0
attr interpolationmode none
attr recordingmode count
attr title "transmitting packet byte length, count"
attr unit bytes
scalar Net10.rte[2].queue[0] txBytes:sum 0
attr interpolationmode none
attr recordingmode sum
attr title "transmitting packet byte length, sum"
attr unit bytes
statistic Net10.rte[2].queue[0] txBytes:histogram
field count 0
field mean -nan
field stddev -nan
field min -nan
field max -nan
field sum 0
field sqrsum 0
attr interpolationmode none
attr recordingmode histogram
attr title "transmitting packet byte length"
attr unit bytes
bin	-inf	0
bin	0	0
bin	1	0
scalar Net10.rte[2].queue[0] busy:timeavg 0
attr interpolationmode sample-hold
attr recordingmode timeavg
attr title "server busy state, timeavg"
scalar Net10.rte[2].queue[0] qlen:timeavg 0
attr interpolationmode sample-hold
attr recordingmode timeavg
attr title "queue length, timeavg"
scalar Net10.rte[2].queue[0] qlen:max 0
attr interpolationmode sample-hold
attr recordingmode max
attr title "queue length, max"
scalar Net10.rte[2].queue[0] drop:count 0
attr interpolationmode none
attr recordingmode count
attr title "dropped packet byte length, count"
attr unit bytes
scalar Net10.rte[2].queue[0] drop:sum 0
attr interpolationmode none
attr recordingmode sum
attr title "dropped packet byte length, sum"
attr unit bytes
par Net10.rte[2].queue[1] typename "\"node.L2Queue\""
par Net10.rte[2].queue[1] frameCapacity 100
par Net10.rte[2].queue[1] useCutThroughSwitching true
scalar Net10.rte[2].queue[1] rxBytes:count 0
attr interpolationmode none
attr recordingmode count
attr title "received packet byte length, count"
attr unit bytes
scalar Net10.rte[2].queue[1] rxBytes:sum 0
attr interpolationmode none
attr recordingmode sum
attr title "received packet byte length, sum"
attr unit bytes
statistic Net10.rte[2].queue[1] rxBytes:histogram
field count 0
field mean -nan
field stddev -nan
field min -nan
field max -nan
field sum 0
field sqrsum 0
attr interpolationmode none
attr recordingmode histogram
attr title "received packet byte length"
attr unit bytes
bin	-inf	0
bin	0	0
bin	1	0
scalar Net10.rte[2].queue[1] txBytes:count 0
attr interpolationmode none
attr recordingmode count
attr title "transmitting packet byte length, count"
attr unit bytes
scalar Net10.rte[2].queue[1] txBytes:sum 0
attr interpolationmode none
attr recordingmode sum
attr title "transmitting packet byte length, sum"
attr unit bytes
statistic Net10.rte[2].queue[1] txBytes:histogram
field count 0
field mean -nan
field stddev -nan
field min -nan
field max -nan
field sum 0
field sqrsum 0
attr interpolationmode none
attr recordingmode histogram
attr title "transmitting packet byte length"
attr unit bytes
bin	-inf	0
bin	0	0
bin	1	0
scalar Net10.rte[2].queue[1] busy:timeavg 0
attr interpolationmode sample-hold
attr recordingmode timeavg
attr title "server busy state, timeavg"
scalar Net10.rte[2].queue[1] qlen:timeavg 0
attr interpolationmode sample-hold
attr recordingmode timeavg
attr title "queue length, timeavg"
scalar Net10.rte[2].queue[1] qlen:max 0
attr interpolationmode sample-hold
attr recordingmode max
attr title "queue length, max"
scalar Net10.rte[2].queue[1] drop:count 0
attr interpolationmode none
attr recordingmode count
attr title "dropped packet byte length, count"
attr unit bytes
scalar Net10.rte[2].queue[1] drop:sum 0
attr interpolationmode none
attr recordingmode sum
attr title "dropped packet byte length, sum"
attr unit bytes
par Net10.rte[2].queue[2] typename "\"node.L2Queue\""
par Net10.rte[2].queue[2] frameCapacity 100
par Net10.rte[2].queue[2] useCutThroughSwitching true
scalar Net10.rte[2].queue[2] rxBytes:count 0
attr interpolationmode none
attr recordingmode count
attr title "received packet byte length, count"
attr unit bytes
scalar Net10.rte[2].queue[2] rxBytes:sum 0
attr interpolationmode none
attr recordingmode sum
attr title "received packet byte length, sum"
attr unit bytes
statistic Net10.rte[2].queue[2] rxBytes:histogram
field count 0
field mean -nan
field stddev -nan
field min -nan
field max -nan
field sum 0
field sqrsum 0
attr interpolationmode none
attr recordingmode histogram
attr title "received packet byte length"
attr unit bytes
bin	-inf	0
bin	0	0
bin	1	0
scalar Net10.rte[2].queue[2] txBytes:count 0
attr interpolationmode none
attr recordingmode count
attr title "transmitting packet byte length, count"
attr unit bytes
scalar Net10.rte[2].queue[2] txBytes:sum 0
attr interpolationmode none
attr recordingmode sum
attr title "transmitting packet byte length, sum"
attr unit bytes
statistic Net10.rte[2].queue[2] txBytes:histogram
field count 0
field mean -nan
field stddev -nan
field min -nan
field max -nan
field sum 0
field sqrsum 0
attr interpolationmode none
attr recordingmode histogram
attr title "transmitting packet byte length"
attr unit bytes
bin	-inf	0
bin	0	0
bin	1	0
scalar Net10.rte[2].queue[2] busy:timeavg 0
attr interpolationmode sample-hold
attr recordingmode timeavg
attr title "server busy state, timeavg"
scalar Net10.rte[2].queue[2] qlen:timeavg 0
attr interpolationmode sample-hold
attr recordingmode timeavg
attr title "queue length, timeavg"
scalar Net10.rte[2].queue[2] qlen:max 0
attr interpolationmode sample-hold
attr recordingmode max
attr title "queue length, max"
scalar Net10.rte[2].queue[2] drop:count 0
attr interpolationmode none
attr recordingmode count
attr title "dropped packet byte length, count"
attr unit bytes
scalar Net10.rte[2].queue[2] drop:sum 0
attr interpolationmode none
attr recordingmode sum
attr title "dropped packet byte length, sum"
attr unit bytes
par Net10.rte[2].queue[3] typename "\"node.L2Queue\""
par Net10.rte[2].queue[3] frameCapacity 100
par Net10.rte[2].queue[3] useCutThroughSwitching true
scalar Net10.rte[2].queue[3] rxBytes:count 7155
attr interpolationmode none
attr recordingmode count
attr title "received packet byte length, count"
attr unit bytes
scalar Net10.rte[2].queue[3] rxBytes:sum 29306880
attr interpolationmode none
attr recordingmode sum
attr title "received packet byte length, sum"
attr unit bytes
statistic Net10.rte[2].queue[3] rxBytes:histogram
field count 7155
field mean 4096
field stddev 0
field min 4096
field max 4096
field sum 29306880
field sqrsum 120040980480
attr interpolationmode none
attr recordingmode histogram
attr title "received packet byte length"
attr unit bytes
bin	-inf	0
bin	4095	0
bin	4096	7155
bin	4097	0
scalar Net10.rte[2].queue[3] txBytes:count 0
attr interpolationmode none
attr recordingmode count
attr title "transmitting packet byte length, count"
attr unit bytes
scalar Net10.rte[2].queue[3] txBytes:sum 0
attr interpolationmode none
attr recordingmode sum
attr title "transmitting packet byte length, sum"
attr unit bytes
statistic Net10.rte[2].queue[3] txBytes:histogram
field count 0
field mean -nan
field stddev -nan
field min -nan
field max -nan
field sum 0
field sqrsum 0
attr interpolationmode none
attr recordingmode histogram
attr title "transmitting packet byte length"
attr unit bytes
bin	-inf	0
bin	0	0
bin	1	0
scalar Net10.rte[2].queue[3] busy:timeavg 0
attr interpolationmode sample-hold
attr recordingmode timeavg
attr title "server busy state, timeavg"
scalar Net10.rte[2].queue[3] qlen:timeavg 0
attr interpolationmode sample-hold
attr recordingmode timeavg
attr title "queue length, timeavg"
scalar Net10.rte[2].queue[3] qlen:max 0
attr interpolationmode sample-hold
attr recordingmode max
attr title "queue length, max"
scalar Net10.rte[2].queue[3] drop:count 0
attr interpolationmode none
attr recordingmode count
attr title "dropped packet byte length, count"
attr unit bytes
scalar Net10.rte[2].queue[3] drop:sum 0
attr interpolationmode none
attr recordingmode sum
attr title "dropped packet byte length, sum"
attr unit bytes
par Net10.rte[2].queue[4] typename "\"node.L2Queue\""
par Net10.rte[2].queue[4] frameCapacity 100
par Net10.rte[2].queue[4] useCutThroughSwitching true
scalar Net10.rte[2].queue[4] rxBytes:count 0
attr interpolationmode none
attr recordingmode count
attr title "received packet byte length, count"
attr unit bytes
scalar Net10.rte[2].queue[4] rxBytes:sum 0
attr interpolationmode none
attr recordingmode sum
attr title "received packet byte length, sum"
attr unit bytes
statistic Net10.rte[2].queue[4] rxBytes:histogram
field count 0
field mean -nan
field stddev -nan
field min -nan
field max -nan
field sum 0
field sqrsum 0
attr interpolationmode none
attr recordingmode histogram
attr title "received packet byte length"
attr unit bytes
bin	-inf	0
bin	0	0
bin	1	0
scalar Net10.rte[2].queue[4] txBytes:count 10707
attr interpolationmode none
attr recordingmode count
attr title "transmitting packet byte length, count"
attr unit bytes
scalar Net10.rte[2].queue[4] txBytes:sum 43855872
attr interpolationmode none
attr recordingmode sum
attr title "transmitting packet byte length, sum"
attr unit bytes
statistic Net10.rte[2].queue[4] txBytes:histogram
field count 10707
field mean 4096
field stddev 0
field min 4096
field max 4096
field sum 43855872
field sqrsum 179633651712
attr interpolationmode none
attr recordingmode histogram
attr title "transmitting packet byte length"
attr unit bytes
bin	-inf	0
bin	4095	0
bin	4096	10707
bin	4097	0
scalar Net10.rte[2].queue[4] busy:timeavg 0.29235192767779
attr interpolationmode sample-hold
attr recordingmode timeavg
attr title "server busy state, timeavg"
scalar Net10.rte[2].queue[4] qlen:timeavg 0.037439317485834
attr interpolationmode sample-hold
attr recordingmode timeavg
attr title "queue length, timeavg"
scalar Net10.rte[2].queue[4] qlen:max 3
attr interpolationmode sample-hold
attr recordingmode max
attr title "queue length, max"
scalar Net10.rte[2].queue[4] drop:count 0
attr interpolationmode none
attr recordingmode count
attr title "dropped packet byte length, count"
attr unit bytes
scalar Net10.rte[2].queue[4] drop:sum 0
attr interpolationmode none
attr recordingmode sum
attr title "dropped packet byte length, sum"
attr unit bytes
par Net10.rte[2] typename "\"node.Node\""
par Net10.rte[2] address 2
par Net10.rte[2] appType "\"App\""
par Net10.rte[3].app typename "\"node.App\""
par Net10.rte[3].app address 3
par Net10.rte[3].app destAddresses "\"1\""
par Net10.rte[3].app sendIaTime exponential(340ms)
attr unit s
par Net10.rte[3].app packetLength 4096byte
attr unit byte
scalar Net10.rte[3].app hopCount:mean -nan
attr interpolationmode none
attr recordingmode mean
attr title "hop count of arrived packets, mean"
scalar Net10.rte[3].app hopCount:max -nan
attr interpolationmode none
attr recordingmode max
attr title "hop count of arrived packets, max"
scalar Net10.rte[3].app endToEndDelay:mean -nan
attr interpolationmode none
attr recordingmode mean
attr title "end-to-end delay of arrived packets, mean"
attr unit s
scalar Net10.rte[3].app endToEndDelay:max -nan
attr interpolationmode none
attr recordingmode max
attr title "end-to-end delay of arrived packets, max"
attr unit s
par Net10.rte[3].routing typename "\"node.Routing\""
statistic Net10.rte[3].routing outputIf:histogram
field count 3472
field mean 1
field stddev 0
field min 1
field max 1
field sum 3472
field sqrsum 3472
attr interpolationmode none
attr recordingmode histogram
attr title "output interface for each routed packet"
bin	-inf	0
bin	0	0
bin	1	3472
bin	2	0
scalar Net10.rte[3].routing drop:count 0
attr interpolationmode none
attr recordingmode count
attr title "dropped packet byte length, count"
attr unit bytes
scalar Net10.rte[3].routing drop:sum 0
attr interpolationmode none
attr recordingmode sum
attr title "dropped packet byte length, sum"
attr unit bytes
par Net10.rte[3].queue[0] typename "\"node.L2Queue\""
par Net10.rte[3].queue[0] frameCapacity 100
par Net10.rte[3].queue[0] useCutThroughSwitching true
scalar Net10.rte[3].queue[0] rxBytes:count 0
attr interpolationmode none
attr recordingmode count
attr title "received packet byte length, count"
attr unit bytes
scalar Net10.rte[3].queue[0] rxBytes:sum 0
attr interpolationmode none
attr recordingmode sum
attr title "received packet byte length, sum"
attr unit bytes
statistic Net10.rte[3].queue[0] rxBytes:histogram
field count 0
field mean -nan
field stddev -nan
field min -nan
field max -nan
field sum 0
field sqrsum 0
attr interpolationmode none
attr recordingmode histogram
attr title "received packet byte length"
attr unit bytes
bin	-inf	0
bin	0	0
bin	1	0
scalar Net10.rte[3].queue[0] txBytes:count 0
attr interpolationmode none
attr recordingmode count
attr title "transmitting packet byte length, count"
attr unit bytes
scalar Net10.rte[3].queue[0] txBytes:sum 0
attr interpolationmode none
attr recordingmode sum
attr title "transmitting packet byte length, sum"
attr unit bytes
statistic Net10.rte[3].queue[0] txBytes:histogram
field count 0
field mean -nan
field stddev -nan
field min -nan
field max -nan
field sum 0
field sqrsum 0
attr interpolationmode none
attr recordingmode histogram
attr title "transmitting packet byte length"
attr unit bytes
bin	-inf	0
bin	0	0
bin	1	0
scalar Net10.rte[3].queue[0] busy:timeavg 0
attr interpolationmode sample-hold
attr recordingmode timeavg
attr title "server busy state, timeavg"
scalar Net10.rte[3].queue[0] qlen:timeavg 0
attr interpolationmode sample-hold
attr recordingmode timeavg
attr title "queue length, timeavg"
scalar Net10.rte[3].queue[0] qlen:max 0
attr interpolationmode sample-hold
attr recordingmode max
attr title "queue length, max"
scalar Net10.rte[3].queue[0] drop:count 0
attr interpolationmode none
attr recordingmode count
attr title "dropped packet byte length, count"
attr unit bytes
scalar Net10.rte[3].queue[0] drop:sum 0
attr interpolationmode none
attr recordingmode sum
attr title "dropped packet byte length, sum"
attr unit bytes
par Net10.rte[3].queue[1] typename "\"node.L2Queue\""
par Net10.rte[3].queue[1] frameCapacity 100
par Net10.rte[3].queue[1] useCutThroughSwitching true
scalar Net10.rte[3].queue[1] rxBytes:count 0
attr interpolationmode none
attr recordingmode count
attr title "received packet byte length, count"
attr unit bytes
scalar Net10.rte[3].queue[1] rxBytes:sum 0
attr interpolationmode none
attr recordingmode sum
attr title "received packet byte length, sum"
attr unit bytes
statistic Net10.rte[3].queue[1] rxBytes:histogram
field count 0
field mean -nan
field stddev -nan
field min -nan
field max -nan
field sum 0
field sqrsum 0
attr interpolationmode none
attr recordingmode histogram
attr title "received packet byte length"
attr unit bytes
bin	-inf	0
bin	0	0
bin	1	0
scalar Net10.rte[3].queue[1] txBytes:count 3472
attr interpolationmode none
attr recordingmode count
attr title "transmitting packet byte length, count"
attr unit bytes
scalar Net10.rte[3].queue[1] txBytes:sum 14221312
attr interpolationmode none
attr recordingmode sum
attr title "transmitting packet byte length, sum"
attr unit bytes
statistic Net10.rte[3].queue[1] txBytes:histogram
field count 3472
field mean 4096
field stddev 0
field min 4096
field max 4096
field sum 14221312
field sqrsum 58250493952
attr interpolationmode none
attr recordingmode histogram
attr title "transmitting packet byte length"
attr unit bytes
bin	-inf	0
bin	4095	0
bin	4096	3472
bin	4097	0
scalar Net10.rte[3].queue[1] busy:timeavg 0.09480874666667
attr interpolationmode sample-hold
attr recordingmode timeavg
attr title "server busy state, timeavg"
scalar Net10.rte[3].queue[1] qlen:timeavg 0.0042730942500558
attr interpolationmode sample-hold
attr recordingmode timeavg
attr title "queue length, timeavg"
scalar Net10.rte[3].queue[1] qlen:max 3
attr interpolationmode sample-hold
attr recordingmode max
attr title "queue length, max"
scalar Net10.rte[3].queue[1] drop:count 0
attr interpolationmode none
attr recordingmode count
attr title "dropped packet byte length, count"
attr unit bytes
scalar Net10.rte[3].queue[1] drop:sum 0
attr interpolationmode none
attr recordingmode sum
attr title "dropped packet byte length, sum"
attr unit bytes
par Net10.rte[3].queue[2] typename "\"node.L2Queue\""
par Net10.rte[3].queue[2] frameCapacity 100
par Net10.rte[3].queue[2] useCutThroughSwitching true
scalar Net10.rte[3].queue[2] rxBytes:count 0
attr interpolationmode none
attr recordingmode count
attr title "received packet byte length, count"
attr unit bytes
scalar Net10.rte[3].queue[2] rxBytes:sum 0
attr interpolationmode none
attr recordingmode sum
attr title "received packet byte length, sum"
attr unit bytes
statistic Net10.rte[3].queue[2] rxBytes:histogram
field count 0
field mean -nan
field stddev -nan
field min -nan
field max -nan
field sum 0
field sqrsum 0
attr interpolationmode none
attr recordingmode histogram
attr title "received packet byte length"
attr unit bytes
bin	-inf	0
bin	0	0
bin	1	0
scalar Net10.rte[3].queue[2] txBytes:count 0
attr interpolationmode none
attr recordingmode count
attr title "transmitting packet byte length, count"
attr unit bytes
scalar Net10.rte[3].queue[2] txBytes:sum 0
attr interpolationmode none
attr recordingmode sum
attr title "transmitting packet byte length, sum"
attr unit bytes
statistic Net10.rte[3].queue[2] txBytes:histogram
field count 0
field mean -nan
field stddev -nan
field min -nan
field max -nan
field sum 0
field sqrsum 0
attr interpolationmode none
attr recordingmode histogram
attr title "transmitting packet byte length"
attr unit bytes
bin	-inf	0
bin	0	0
bin	1	0
scalar Net10.rte[3].queue[2] busy:timeavg 0
attr interpolationmode sample-hold
attr recordingmode timeavg
attr title "server busy state, timeavg"
scalar Net10.rte[3].queue[2] qlen:timeavg 0
attr interpolationmode sample-hold
attr recordingmode timeavg
attr title "queue length, timeavg"
scalar Net10.rte[3].queue[2] qlen:max 0
attr interpolationmode sample-hold
attr recordingmode max
attr title "queue length, max"
scalar Net10.rte[3].queue[2] drop:count 0
attr interpolationmode none
attr recordingmode count
attr title "dropped packet byte length, count"
attr unit bytes
scalar Net10.rte[3].queue[2] drop:sum 0
attr interpolationmode none
attr recordingmode sum
attr title "dropped packet byte length, sum"
attr unit bytes
par Net10.rte[3] typename "\"node.Node\""
par Net10.rte[3] address 3
par Net10.rte[3] appType "\"App\""
par Net10.rte[4].app typename "\"node.App\""
par Net10.rte[4].app address 4
par Net10.rte[4].app destAddresses "\"1\""
par Net10.rte[4].app sendIaTime exponential(340ms)
attr unit s
par Net10.rte[4].app packetLength 4096byte
attr unit byte
scalar Net10.rte[4].app hopCount:mean -nan
attr interpolationmode none
attr recordingmode mean
attr title "hop count of arrived packets, mean"
scalar Net10.rte[4].app hopCount:max -nan
attr interpolationmode none
attr recordingmode max
attr title "hop count of arrived packets, max"
scalar Net10.rte[4].app endToEndDelay:mean -nan
attr interpolationmode none
attr recordingmode mean
attr title "end-to-end delay of arrived packets, mean"
attr unit s
scalar Net10.rte[4].app endToEndDelay:max -nan
attr interpolationmode none
attr recordingmode max
attr title "end-to-end delay of arrived packets, max"
attr unit s
par Net10.rte[4].routing typename "\"node.Routing\""
statistic Net10.rte[4].routing outputIf:histogram
field count 7155
field mean 2
field stddev 0
field min 2
field max 2
field sum 14310
field sqrsum 28620
attr interpolationmode none
attr recordingmode histogram
attr title "output interface for each routed packet"
bin	-inf	0
bin	1	0
bin	2	7155
bin	3	0
scalar Net10.rte[4].routing drop:count 0
attr interpolationmode none
attr recordingmode count
attr title "dropped packet byte length, count"
attr unit bytes
scalar Net10.rte[4].routing drop:sum 0
attr interpolationmode none
attr recordingmode sum
attr title "dropped packet byte length, sum"
attr unit bytes
par Net10.rte[4].queue[0] typename "\"node.L2Queue\""
par Net10.rte[4].queue[0] frameCapacity 100
par Net10.rte[4].queue[0] useCutThroughSwitching true
scalar Net10.rte[4].queue[0] rxBytes:count 3562
attr interpolationmode none
attr recordingmode count
attr title "received packet byte length, count"
attr unit bytes
scalar Net10.rte[4].queue[0] rxBytes:sum 14589952
attr interpolationmode none
attr recordingmode sum
attr title "received packet byte length, sum"
attr unit bytes
statistic Net10.rte[4].queue[0] rxBytes:histogram
field count 3562
field mean 4096
field stddev 0
field min 4096
field max 4096
field sum 14589952
field sqrsum 59760443392
attr interpolationmode none
attr recordingmode histogram
attr title "received packet byte length"
attr unit bytes
bin	-inf	0
bin	4095	0
bin	4096	3562
bin	4097	0
scalar Net10.rte[4].queue[0] txBytes:count 0
attr interpolationmode none
attr recordingmode count
attr title "transmitting packet byte length, count"
attr unit bytes
scalar Net10.rte[4].queue[0] txBytes:sum 0
attr interpolationmode none
attr recordingmode sum
attr title "transmitting packet byte length, sum"
attr unit bytes
statistic Net10.rte[4].queue[0] txBytes:histogram
field count 0
field mean -nan
field stddev -nan
field min -nan
field max -nan
field sum 0
field sqrsum 0
attr interpolationmode none
attr recordingmode histogram
attr title "transmitting packet byte length"
attr unit bytes
bin	-inf	0
bin	0	0
bin	1	0
scalar Net10.rte[4].queue[0] busy:timeavg 0
attr interpolationmode sample-hold
attr recordingmode timeavg
attr title "server busy state, timeavg"
scalar Net10.rte[4].queue[0] qlen:timeavg 0
attr interpolationmode sample-hold
attr recordingmode timeavg
attr title "queue length, timeavg"
scalar Net10.rte[4].queue[0] qlen:max 0
attr interpolationmode sample-hold
attr recordingmode max
attr title "queue length, max"
scalar Net10.rte[4].queue[0] drop:count 0
attr interpolationmode none
attr recordingmode count
attr title "dropped packet byte length, count"
attr unit bytes
scalar Net10.rte[4].queue[0] drop:sum 0
attr interpolationmode none
attr recordingmode sum
attr title "dropped packet byte length, sum"
attr unit bytes
par Net10.rte[4].queue[1] typename "\"node.L2Queue\""
par Net10.rte[4].queue[1] frameCapacity 100
par Net10.rte[4].queue[1] useCutThroughSwitching true
scalar Net10.rte[4].queue[1] rxBytes:count 0
attr interpolationmode none
attr recordingmode count
attr title "received packet byte length, count"
attr unit bytes
scalar Net10.rte[4].queue[1] rxBytes:sum 0
attr interpolationmode none
attr recordingmode sum
attr title "received packet byte length, sum"
attr unit bytes
statistic Net10.rte[4].queue[1] rxBytes:histogram
field count 0
field mean -nan
field stddev -nan
field min -nan
field max -nan
field sum 0
field sqrsum 0
attr interpolationmode none
attr recordingmode histogram
attr title "received packet byte length"
attr unit bytes
bin	-inf	0
bin	0	0
bin	1	0
scalar Net10.rte[4].queue[1] txBytes:count 0
attr interpolationmode none
attr recordingmode count
attr title "transmitting packet byte length, count"
attr unit bytes
scalar Net10.rte[4].queue[1] txBytes:sum 0
attr interpolationmode none
attr recordingmode sum
attr title "transmitting packet byte length, sum"
attr unit bytes
statistic Net10.rte[4].queue[1] txBytes:histogram
field count 0
field mean -nan
field stddev -nan
field min -nan
field max -nan
field sum 0
field sqrsum 0
attr interpolationmode none
attr recordingmode histogram
attr title "transmitting packet byte length"
attr unit bytes
bin	-inf	0
bin	0	0
bin	1	0
scalar Net10.rte[4].queue[1] busy:timeavg 0
attr interpolationmode sample-hold
attr recordingmode timeavg
attr title "server busy state, timeavg"
scalar Net10.rte[4].queue[1] qlen:timeavg 0
attr interpolationmode sample-hold
attr recordingmode timeavg
attr title "queue length, timeavg"
scalar Net10.rte[4].queue[1] qlen:max 0
attr interpolationmode sample-hold
attr recordingmode max
attr title "queue length, max"
scalar Net10.rte[4].queue[1] drop:count 0
attr interpolationmode none
attr recordingmode count
attr title "dropped packet byte length, count"
attr unit bytes
scalar Net10.rte[4].queue[1] drop:sum 0
attr interpolationmode none
attr recordingmode sum
attr title "dropped packet byte length, sum"
attr unit bytes
par Net10.rte[4].queue[2] typename "\"node.L2Queue\""
par Net10.rte[4].queue[2] frameCapacity 100
par Net10.rte[4].queue[2] useCutThroughSwitching true
scalar Net10.rte[4].queue[2] rxBytes:count 0
attr interpolationmode none
attr recordingmode count
attr title "received packet byte length, count"
attr unit bytes
scalar Net10.rte[4].queue[2] rxBytes:sum 0
attr interpolationmode none
attr recordingmode sum
attr title "received packet byte length, sum"
attr unit bytes
statistic Net10.rte[4].queue[2] rxBytes:histogram
field count 0
field mean -nan
field stddev -nan
field min -nan
field max -nan
field sum 0
field sqrsum 0
attr interpolationmode none
attr recordingmode histogram
attr title "received packet byte length"
attr unit bytes
bin	-inf	0
bin	0	0
bin	1	0
scalar Net10.rte[4].queue[2] txBytes:count 7155
attr interpolationmode none
attr recordingmode count
attr title "transmitting packet byte length, count"
attr unit bytes
scalar Net10.rte[4].queue[2] txBytes:sum 29306880
attr interpolationmode none
attr recordingmode sum
attr title "transmitting packet byte length, sum"
attr unit bytes
statistic Net10.rte[4].queue[2] txBytes:histogram
field count 7155
field mean 4096
field stddev 0
field min 4096
field max 4096
field sum 29306880
field sqrsum 120040980480
attr interpolationmode none
attr recordingmode histogram
attr title "transmitting packet byte length"
attr unit bytes
bin	-inf	0
bin	4095	0
bin	4096	7155
bin	4097	0
scalar Net10.rte[4].queue[2] busy:timeavg 0.19535931666503
attr interpolationmode sample-hold
attr recordingmode timeavg
attr title "server busy state, timeavg"
scalar Net10.rte[4].queue[2] qlen:timeavg 0.017783691318744
attr interpolationmode sample-hold
attr recordingmode timeavg
attr title "queue length, timeavg"
scalar Net10.rte[4].queue[2] qlen:max 3
attr interpolationmode sample-hold
attr recordingmode max
attr title "queue length, max"
scalar Net10.rte[4].queue[2] drop:count 0
attr interpolationmode none
attr recordingmode count
attr title "dropped packet byte length, count"
attr unit bytes
scalar Net10.rte[4].queue[2] drop:sum 0
attr interpolationmode none
attr recordingmode sum
attr title "dropped packet byte length, sum"
attr unit bytes
par Net10.rte[4].queue[3] typename "\"node.L2Queue\""
par Net10.rte[4].queue[3] frameCapacity 100
par Net10.rte[4].queue[3] useCutThroughSwitching true
scalar Net10.rte[4].queue[3] rxBytes:count 0
attr interpolationmode none
attr recordingmode count
attr title "received packet byte length, count"
attr unit bytes
scalar Net10.rte[4].queue[3] rxBytes:sum 0
attr interpolationmode none
attr recordingmode sum
attr title "received packet byte length, sum"
attr unit bytes
statistic Net10.rte[4].queue[3] rxBytes:histogram
field count 0
field mean -nan
field stddev -nan
field min -nan
field max -nan
field sum 0
field sqrsum 0
attr interpolationmode none
attr recordingmode histogram
attr title "received packet byte length"
attr unit bytes
bin	-inf	0
bin	0	0
bin	1	0
scalar Net10.rte[4].queue[3] txBytes:count 0
attr interpolationmode none
attr recordingmode count
attr title "transmitting packet byte length, count"
attr unit bytes
scalar Net10.rte[4].queue[3] txBytes:sum 0
attr interpolationmode none
attr recordingmode sum
attr title "transmitting packet byte length, sum"
attr unit bytes
statistic Net10.rte[4].queue[3] txBytes:histogram
field count 0
field mean -nan
field stddev -nan
field min -nan
field max -nan
field sum 0
field sqrsum 0
attr interpolationmode none
attr recordingmode histogram
attr title "transmitting packet byte length"
attr unit bytes
bin	-inf	0
bin	0	0
bin	1	0
scalar Net10.rte[4].queue[3] busy:timeavg 0
attr interpolationmode sample-hold
attr recordingmode timeavg
attr title "server busy state, timeavg"
scalar Net10.rte[4].queue[3] qlen:timeavg 0
attr interpolationmode sample-hold
attr recordingmode timeavg
attr title "queue length, timeavg"
scalar Net10.rte[4].queue[3] qlen:max 0
attr interpolationmode sample-hold
attr recordingmode max
attr title "queue length, max"
scalar Net10.rte[4].queue[3] drop:count 0
attr interpolationmode none
attr recordingmode count
attr title "dropped packet byte length, count"
attr unit bytes
scalar Net10.rte[4].queue[3] drop:sum 0
attr interpolationmode none
attr recordingmode sum
attr title "dropped packet byte length, sum"
attr unit bytes
par Net10.rte[4] typename "\"node.Node\""
par Net10.rte[4] address 4
par Net10.rte[4] appType "\"App\""
par Net10.rte[5].app typename "\"node.App\""
par Net10.rte[5].app address 5
par Net10.rte[5].app destAddresses "\"1\""
par Net10.rte[5].app sendIaTime exponential(340ms)
attr unit s
par Net10.rte[5].app packetLength 4096byte
attr unit byte
scalar Net10.rte[5].app hopCount:mean -nan
attr interpolationmode none
attr recordingmode mean
attr title "hop count of arrived packets, mean"
scalar Net10.rte[5].app hopCount:max -nan
attr interpolationmode none
attr recordingmode max
attr title "hop count of arrived packets, max"
scalar Net10.rte[5].app endToEndDelay:mean -nan
attr interpolationmode none
attr recordingmode mean
attr title "end-to-end delay of arrived packets, mean"
attr unit s
scalar Net10.rte[5].app endToEndDelay:max -nan
attr interpolationmode none
attr recordingmode max
attr title "end-to-end delay of arrived packets, max"
attr unit s
par Net10.rte[5].routing typename "\"node.Routing\""
statistic Net10.rte[5].routing outputIf:histogram
field count 14201
field mean 3
field stddev 0
field min 3
field max 3
field sum 42603
field sqrsum 127809
attr interpolationmode none
attr recordingmode histogram
attr title "output interface for each routed packet"
bin	-inf	0
bin	2	0
bin	3	14201
bin	4	0
scalar Net10.rte[5].routing drop:count 0
attr interpolationmode none
attr recordingmode count
attr title "dropped packet byte length, count"
attr unit bytes
scalar Net10.rte[5].routing drop:sum 0
attr interpolationmode none
attr recordingmode sum
attr title "dropped packet byte length, sum"
attr unit bytes
par Net10.rte[5].queue[0] typename "\"node.L2Queue\""
par Net10.rte[5].queue[0] frameCapacity 100
par Net10.rte[5].queue[0] useCutThroughSwitching true
scalar Net10.rte[5].queue[0] rxBytes:count 0
attr interpolationmode none
attr recordingmode count
attr title "received packet byte length, count"
attr unit bytes
scalar Net10.rte[5].queue[0] rxBytes:sum 0
attr interpolationmode none
attr recordingmode sum
attr title "received packet byte length, sum"
attr unit bytes
statistic Net10.rte[5].queue[0] rxBytes:histogram
field count 0
field mean -nan
field stddev -nan
field min -nan
field max -nan
field sum 0
field sqrsum 0
attr interpolationmode none
attr recordingmode histogram
attr title "received packet byte length"
attr unit bytes
bin	-inf	0
bin	0	0
bin	1	0
scalar Net10.rte[5].queue[0] txBytes:count 0
attr interpolationmode none
attr recordingmode count
attr title "transmitting packet byte length, count"
attr unit bytes
scalar Net10.rte[5].queue[0] txBytes:sum 0
attr interpolationmode none
attr recordingmode sum
attr title "transmitting packet byte length, sum"
attr unit bytes
statistic Net10.rte[5].queue[0] txBytes:histogram
field count 0
field mean -nan
field stddev -nan
field min -nan
field max -nan
field sum 0
field sqrsum 0
attr interpolationmode none
attr recordingmode histogram
attr title "transmitting packet byte length"
attr unit bytes
bin	-inf	0
bin	0	0
bin	1	0
scalar Net10.rte[5].queue[0] busy:timeavg 0
attr interpolationmode sample-hold
attr recordingmode timeavg
attr title "server busy state, timeavg"
scalar Net10.rte[5].queue[0] qlen:timeavg 0
attr interpolationmode sample-hold
attr recordingmode timeavg
attr title "queue length, timeavg"
scalar Net10.rte[5].queue[0] qlen:max 0
attr interpolationmode sample-hold
attr recordingmode max
attr title "queue length, max"
scalar Net10.rte[5].queue[0] drop:count 0
attr interpolationmode none
attr recordingmode count
attr title "dropped packet byte length, count"
attr unit bytes
scalar Net10.rte[5].queue[0] drop:sum 0
attr interpolationmode none
attr recordingmode sum
attr title "dropped packet byte length, sum"
attr unit bytes
par Net10.rte[5].queue[1] typename "\"node.L2Queue\""
par Net10.rte[5].queue[1] frameCapacity 100
par Net10.rte[5].queue[1] useCutThroughSwitching true
scalar Net10.rte[5].queue[1] rxBytes:count 3607
attr interpolationmode none
attr recordingmode count
attr title "received packet byte length, count"
attr unit bytes
scalar Net10.rte[5].queue[1] rxBytes:sum 14774272
attr interpolationmode none
attr recordingmode sum
attr title "received packet byte length, sum"
attr unit bytes
statistic Net10.rte[5].queue[1] rxBytes:histogram
field count 3607
field mean 4096
field stddev 0
field min 4096
field max 4096
field sum 14774272
field sqrsum 60515418112
attr interpolationmode none
attr recordingmode histogram
attr title "received packet byte length"
attr unit bytes
bin	-inf	0
bin	4095	0
bin	4096	3607
bin	4097	0
scalar Net10.rte[5].queue[1] txBytes:count 0
attr interpolationmode none
attr recordingmode count
attr title "transmitting packet byte length, count"
attr unit bytes
scalar Net10.rte[5].queue[1] txBytes:sum 0
attr interpolationmode none
attr recordingmode sum
attr title "transmitting packet byte length, sum"
attr unit bytes
statistic Net10.rte[5].queue[1] txBytes:histogram
field count 0
field mean -nan
field stddev -nan
field min -nan
field max -nan
field sum 0
field sqrsum 0
attr interpolationmode none
attr recordingmode histogram
attr title "transmitting packet byte length"
attr unit bytes
bin	-inf	0
bin	0	0
bin	1	0
scalar Net10.rte[5].queue[1] busy:timeavg 0
attr interpolationmode sample-hold
attr recordingmode timeavg
attr title "server busy state, timeavg"
scalar Net10.rte[5].queue[1] qlen:timeavg 0
attr interpolationmode sample-hold
attr recordingmode timeavg
attr title "queue length, timeavg"
scalar Net10.rte[5].queue[1] qlen:max 0
attr interpolationmode sample-hold
attr recordingmode max
attr title "queue length, max"
scalar Net10.rte[5].queue[1] drop:count 0
attr interpolationmode none
attr recordingmode count
attr title "dropped packet byte length, count"
attr unit bytes
scalar Net10.rte[5].queue[1] drop:sum 0
attr interpolationmode none
attr recordingmode sum
attr title "dropped packet byte length, sum"
attr unit bytes
par Net10.rte[5].queue[2] typename "\"node.L2Queue\""
par Net10.rte[5].queue[2] frameCapacity 100
par Net10.rte[5].queue[2] useCutThroughSwitching true
scalar Net10.rte[5].queue[2] rxBytes:count 7032
attr interpolationmode none
attr recordingmode count
attr title "received packet byte length, count"
attr unit bytes
scalar Net10.rte[5].queue[2] rxBytes:sum 28803072
attr interpolationmode none
attr recordingmode sum
attr title "received packet byte length, sum"
attr unit bytes
statistic Net10.rte[5].queue[2] rxBytes:histogram
field count 7032
field mean 4096
field stddev 0
field min 4096
field max 4096
field sum 28803072
field sqrsum 117977382912
attr interpolationmode none
attr recordingmode histogram
attr title "received packet byte length"
attr unit bytes
bin	-inf	0
bin	4095	0
bin	4096	7032
bin	4097	0
scalar Net10.rte[5].queue[2] txBytes:count 0
attr interpolationmode none
attr recordingmode count
attr title "transmitting packet byte length, count"
attr unit bytes
scalar Net10.rte[5].queue[2] txBytes:sum 0
attr interpolationmode none
attr recordingmode sum
attr title "transmitting packet byte length, sum"
attr unit bytes
statistic Net10.rte[5].queue[2] txBytes:histogram
field count 0
field mean -nan
field stddev -nan
field min -nan
field max -nan
field sum 0
field sqrsum 0
attr interpolationmode none
attr recordingmode histogram
attr title "transmitting packet byte length"
attr unit bytes
bin	-inf	0
bin	0	0
bin	1	0
scalar Net10.rte[5].queue[2] busy:timeavg 0
attr interpolationmode sample-hold
attr recordingmode timeavg
attr title "server busy state, timeavg"
scalar Net10.rte[5].queue[2] qlen:timeavg 0
attr interpolationmode sample-hold
attr recordingmode timeavg
attr title "queue length, timeavg"
scalar Net10.rte[5].queue[2] qlen:max 0
attr interpolationmode sample-hold
attr recordingmode max
attr title "queue length, max"
scalar Net10.rte[5].queue[2] drop:count 0
attr interpolationmode none
attr recordingmode count
attr title "dropped packet byte length, count"
attr unit bytes
scalar Net10.rte[5].queue[2] drop:sum 0
attr interpolationmode none
attr recordingmode sum
attr title "dropped packet byte length, sum"
attr unit bytes
par Net10.rte[5].queue[3] typename "\"node.L2Queue\""
par Net10.rte[5].queue[3] frameCapacity 100
par Net10.rte[5].queue[3] useCutThroughSwitching true
scalar Net10.rte[5].queue[3] rxBytes:count 0
attr interpolationmode none
attr recordingmode count
attr title "received packet byte length, count"
attr unit bytes
scalar Net10.rte[5].queue[3] rxBytes:sum 0
attr interpolationmode none
attr recordingmode sum
attr title "received packet byte length, sum"
attr unit bytes
statistic Net10.rte[5].queue[3] rxBytes:histogram
field count 0
field mean -nan
field stddev -nan
field min -nan
field max -nan
field sum 0
field sqrsum 0
attr interpolationmode none
attr recordingmode histogram
attr title "received packet byte length"
attr unit bytes
bin	-inf	0
bin	0	0
bin	1	0
scalar Net10.rte[5].queue[3] txBytes:count 14200
attr interpolationmode none
attr recordingmode count
attr title "transmitting packet byte length, count"
attr unit bytes
scalar Net10.rte[5].queue[3] txBytes:sum 58163200
attr interpolationmode none
attr recordingmode sum
attr title "transmitting packet byte length, sum"
attr unit bytes
statistic Net10.rte[5].queue[3] txBytes:histogram
field count 14200
field mean 4096
field stddev 0
field min 4096
field max 4096
field sum 58163200
field sqrsum 238236467200
attr interpolationmode none
attr recordingmode histogram
attr title "transmitting packet byte length"
attr unit bytes
bin	-inf	0
bin	4095	0
bin	4096	14200
bin	4097	0
scalar Net10.rte[5].queue[3] busy:timeavg 0.38775197873629
attr interpolationmode sample-hold
attr recordingmode timeavg
attr title "server busy state, timeavg"
scalar Net10.rte[5].queue[3] qlen:timeavg 0.098949029042714
attr interpolationmode sample-hold
attr recordingmode timeavg
attr title "queue length, timeavg"
scalar Net10.rte[5].queue[3] qlen:max 7
attr interpolationmode sample-hold
attr recordingmode max
attr title "queue length, max"
scalar Net10.rte[5].queue[3] drop:count 0
attr interpolationmode none
attr recordingmode count
attr title "dropped packet byte length, count"
attr unit bytes
scalar Net10.rte[5].queue[3] drop:sum 0
attr interpolationmode none
attr recordingmode sum
attr title "dropped packet byte length, sum"
attr unit bytes
par Net10.rte[5] typename "\"node.Node\""
par Net10.rte[5] address 5
par Net10.rte[5] appType "\"App\""
par Net10.rte[6].app typename "\"node.App\""
par Net10.rte[6].app address 6
par Net10.rte[6].app destAddresses "\"1\""
par Net10.rte[6].app sendIaTime exponential(340ms)
attr unit s
par Net10.rte[6].app packetLength 4096byte
attr unit byte
scalar Net10.rte[6].app hopCount:mean -nan
attr interpolationmode none
attr recordingmode mean
attr title "hop count of arrived packets, mean"
scalar Net10.rte[6].app hopCount:max -nan
attr interpolationmode none
attr recordingmode max
attr title "hop count of arrived packets, max"
scalar Net10.rte[6].app endToEndDelay:mean -nan
attr interpolationmode none
attr recordingmode mean
attr title "end-to-end delay of arrived packets, mean"
attr unit s
scalar Net10.rte[6].app endToEndDelay:max -nan
attr interpolationmode none
attr recordingmode max
attr title "end-to-end delay of arrived packets, max"
attr unit s
par Net10.rte[6].routing typename "\"node.Routing\""
statistic Net10.rte[6].routing outputIf:histogram
field count 7033
field mean 4
field stddev 0
field min 4
field max 4
field sum 28132
field sqrsum 112528
attr interpolationmode none
attr recordingmode histogram
attr title "output interface for each routed packet"
bin	-inf	0
bin	3	0
bin	4	7033
bin	5	0
scalar Net10.rte[6].routing drop:count 0
attr interpolationmode none
attr recordingmode count
attr title "dropped packet byte length, count"
attr unit bytes
scalar Net10.rte[6].routing drop:sum 0
attr interpolationmode none
attr recordingmode sum
attr title "dropped packet byte length, sum"
attr unit bytes
par Net10.rte[6].queue[0] typename "\"node.L2Queue\""
par Net10.rte[6].queue[0] frameCapacity 100
par Net10.rte[6].queue[0] useCutThroughSwitching true
scalar Net10.rte[6].queue[0] rxBytes:count 0
attr interpolationmode none
attr recordingmode count
attr title "received packet byte length, count"
attr unit bytes
scalar Net10.rte[6].queue[0] rxBytes:sum 0
attr interpolationmode none
attr recordingmode sum
attr title "received packet byte length, sum"
attr unit bytes
statistic Net10.rte[6].queue[0] rxBytes:histogram
field count 0
field mean -nan
field stddev -nan
field min -nan
field max -nan
field sum 0
field sqrsum 0
attr interpolationmode none
attr recordingmode histogram
attr title "received packet byte length"
attr unit bytes
bin	-inf	0
bin	0	0
bin	1	0
scalar Net10.rte[6].queue[0] txBytes:count 0
attr interpolationmode none
attr recordingmode count
attr title "transmitting packet byte length, count"
attr unit bytes
scalar Net10.rte[6].queue[0] txBytes:sum 0
attr interpolationmode none
attr recordingmode sum
attr title "transmitting packet byte length, sum"
attr unit bytes
statistic Net10.rte[6].queue[0] txBytes:histogram
field count 0
field mean -nan
field stddev -nan
field min -nan
field max -nan
field sum 0
field sqrsum 0
attr interpolationmode none
attr recordingmode histogram
attr title "transmitting packet byte length"
attr unit bytes
bin	-inf	0
bin	0	0
bin	1	0
scalar Net10.rte[6].queue[0] busy:timeavg 0
attr interpolationmode sample-hold
attr recordingmode timeavg
attr title "server busy state, timeavg"
scalar Net10.rte[6].queue[0] qlen:timeavg 0
attr interpolationmode sample-hold
attr recordingmode timeavg
attr title "queue length, timeavg"
scalar Net10.rte[6].queue[0] qlen:max 0
attr interpolationmode sample-hold
attr recordingmode max
attr title "queue length, max"
scalar Net10.rte[6].queue[0] drop:count 0
attr interpolationmode none
attr recordingmode count
attr title "dropped packet byte length, count"
attr unit bytes
scalar Net10.rte[6].queue[0] drop:sum 0
attr interpolationmode none
attr recordingmode sum
attr title "dropped packet byte length, sum"
attr unit bytes
par Net10.rte[6].queue[1] typename "\"node.L2Queue\""
par Net10.rte[6].queue[1] frameCapacity 100
par Net10.rte[6].queue[1] useCutThroughSwitching true
scalar Net10.rte[6].queue[1] rxBytes:count 0
attr interpolationmode none
attr recordingmode count
attr title "received packet byte length, count"
attr unit bytes
scalar Net10.rte[6].queue[1] rxBytes:sum 0
attr interpolationmode none
attr recordingmode sum
attr title "received packet byte length, sum"
attr unit bytes
statistic Net10.rte[6].queue[1] rxBytes:histogram
field count 0
field mean -nan
field stddev -nan
field min -nan
field max -nan
field sum 0
field sqrsum 0
attr interpolationmode none
attr recordingmode histogram
attr title "received packet byte length"
attr unit bytes
bin	-inf	0
bin	0	0
bin	1	0
scalar Net10.rte[6].queue[1] txBytes:count 0
attr interpolationmode none
attr recordingmode count
attr title "transmitting packet byte length, count"
attr unit bytes
scalar Net10.rte[6].queue[1] txBytes:sum 0
attr interpolationmode none
attr recordingmode sum
attr title "transmitting packet byte length, sum"
attr unit bytes
statistic Net10.rte[6].queue[1] txBytes:histogram
field count 0
field mean -nan
field stddev -nan
field min -nan
field max -nan
field sum 0
field sqrsum 0
attr interpolationmode none
attr recordingmode histogram
attr title "transmitting packet byte length"
attr unit bytes
bin	-inf	0
bin	0	0
bin	1	0
scalar Net10.rte[6].queue[1] busy:timeavg 0
attr interpolationmode sample-hold
attr recordingmode timeavg
attr title "server busy state, timeavg"
scalar Net10.rte[6].queue[1] qlen:timeavg 0
attr interpolationmode sample-hold
attr recordingmode timeavg
attr title "queue length, timeavg"
scalar Net10.rte[6].queue[1] qlen:max 0
attr interpolationmode sample-hold
attr recordingmode max
attr title "queue length, max"
scalar Net10.rte[6].queue[1] drop:count 0
attr interpolationmode none
attr recordingmode count
attr title "dropped packet byte length, count"
attr unit bytes
scalar Net10.rte[6].queue[1] drop:sum 0
attr interpolationmode none
attr recordingmode sum
attr title "dropped packet byte length, sum"
attr unit bytes
par Net10.rte[6].queue[2] typename "\"node.L2Queue\""
par Net10.rte[6].queue[2] frameCapacity 100
par Net10.rte[6].queue[2] useCutThroughSwitching true
scalar Net10.rte[6].queue[2] rxBytes:count 3485
attr interpolationmode none
attr recordingmode count
attr title "received packet byte length, count"
attr unit bytes
scalar Net10.rte[6].queue[2] rxBytes:sum 14274560
attr interpolationmode none
attr recordingmode sum
attr title "received packet byte length, sum"
attr unit bytes
statistic Net10.rte[6].queue[2] rxBytes:histogram
field count 3485
field mean 4096
field stddev 0
field min 4096
field max 4096
field sum 14274560
field sqrsum 58468597760
attr interpolationmode none
attr recordingmode histogram
attr title "received packet byte length"
[...]
field count 0
field mean -nan
field stddev -nan
field min -nan
field max -nan
field sum 0
field sqrsum 0
attr interpolationmode none
attr recordingmode histogram
attr title "received packet byte length"
attr unit bytes
bin	-inf	0
bin	0	0
bin	1	0
scalar Net10.rte[7].queue[1] txBytes:count 0
attr interpolationmode none
attr recordingmode count
attr title "transmitting packet byte length, count"
attr unit bytes
scalar Net10.rte[7].queue[1] txBytes:sum 0
attr interpolationmode none
attr recordingmode sum
attr title "transmitting packet byte length, sum"
attr unit bytes
statistic Net10.rte[7].queue[1] txBytes:histogram
field count 0
field mean -nan
field stddev -nan
field min -nan
field max -nan
field sum 0
field sqrsum 0
attr interpolationmode none
attr recordingmode histogram
attr title "transmitting packet byte length"
attr unit bytes
bin	-inf	0
bin	0	0
bin	1	0
scalar Net10.rte[7].queue[1] busy:timeavg 0
attr interpolationmode sample-hold
attr recordingmode timeavg
attr title "server busy state, timeavg"
scalar Net10.rte[7].queue[1] qlen:timeavg 0
attr interpolationmode sample-hold
attr recordingmode timeavg
attr title "queue length, timeavg"
scalar Net10.rte[7].queue[1] qlen:max 0
attr interpolationmode sample-hold
attr recordingmode max
attr title "queue length, max"
scalar Net10.rte[7].queue[1] drop:count 0
attr interpolationmode none
attr recordingmode count
attr title "dropped packet byte length, count"
attr unit bytes
scalar Net10.rte[7].queue[1] drop:sum 0
attr interpolationmode none
attr recordingmode sum
attr title "dropped packet byte length, sum"
attr unit bytes
par Net10.rte[7].queue[2] typename "\"node.L2Queue\""
par Net10.rte[7].queue[2] frameCapacity 100
par Net10.rte[7].queue[2] useCutThroughSwitching true
scalar Net10.rte[7].queue[2] rxBytes:count 0
attr interpolationmode none
attr recordingmode count
attr title "received packet byte length, count"
attr unit bytes
scalar Net10.rte[7].queue[2] rxBytes:sum 0
attr interpolationmode none
attr recordingmode sum
attr title "received packet byte length, sum"
attr unit bytes
statistic Net10.rte[7].queue[2] rxBytes:histogram
field count 0
field mean -nan
field stddev -nan
field min -nan
field max -nan
field sum 0
field sqrsum 0
attr interpolationmode none
attr recordingmode histogram
attr title "received packet byte length"
attr unit bytes
bin	-inf	0
bin	0	0
bin	1	0
scalar Net10.rte[7].queue[2] txBytes:count 0
attr interpolationmode none
attr recordingmode count
attr title "transmitting packet byte length, count"
attr unit bytes
scalar Net10.rte[7].queue[2] txBytes:sum 0
attr interpolationmode none
attr recordingmode sum
attr title "transmitting packet byte length, sum"
attr unit bytes
statistic Net10.rte[7].queue[2] txBytes:histogram
field count 0
field mean -nan
field stddev -nan
field min -nan
field max -nan
field sum 0
field sqrsum 0
attr interpolationmode none
attr recordingmode histogram
attr title "transmitting packet byte length"
attr unit bytes
bin	-inf	0
bin	0	0
bin	1	0
scalar Net10.rte[7].queue[2] busy:timeavg 0
attr interpolationmode sample-hold
attr recordingmode timeavg
attr title "server busy state, timeavg"
scalar Net10.rte[7].queue[2] qlen:timeavg 0
attr interpolationmode sample-hold
attr recordingmode timeavg
attr title "queue length, timeavg"
scalar Net10.rte[7].queue[2] qlen:max 0
attr interpolationmode sample-hold
attr recordingmode max
attr title "queue length, max"
scalar Net10.rte[7].queue[2] drop:count 0
attr interpolationmode none
attr recordingmode count
attr title "dropped packet byte length, count"
attr unit bytes
scalar Net10.rte[7].queue[2] drop:sum 0
attr interpolationmode none
attr recordingmode sum
attr title "dropped packet byte length, sum"
attr unit bytes
par Net10.rte[7] typename "\"node.Node\""
par Net10.rte[7] address 7
par Net10.rte[7] appType "\"App\""
par Net10.rte[8].app typename "\"node.App\""
par Net10.rte[8].app address 8
par Net10.rte[8].app destAddresses "\"1\""
par Net10.rte[8].app sendIaTime exponential(340ms)
attr unit s
par Net10.rte[8].app packetLength 4096byte
attr unit byte
scalar Net10.rte[8].app hopCount:mean -nan
attr interpolationmode none
attr recordingmode mean
attr title "hop count of arrived packets, mean"
scalar Net10.rte[8].app hopCount:max -nan
attr interpolationmode none
attr recordingmode max
attr title "hop count of arrived packets, max"
scalar Net10.rte[8].app endToEndDelay:mean -nan
attr interpolationmode none
attr recordingmode mean
attr title "end-to-end delay of arrived packets, mean"
attr unit s
scalar Net10.rte[8].app endToEndDelay:max -nan
attr interpolationmode none
attr recordingmode max
attr title "end-to-end delay of arrived packets, max"
attr unit s
par Net10.rte[8].routing typename "\"node.Routing\""
statistic Net10.rte[8].routing outputIf:histogram
field count 3562
field mean 1
field stddev 0
field min 1
field max 1
field sum 3562
field sqrsum 3562
attr interpolationmode none
attr recordingmode histogram
attr title "output interface for each routed packet"
bin	-inf	0
bin	0	0
bin	1	3562
bin	2	0
scalar Net10.rte[8].routing drop:count 0
attr interpolationmode none
attr recordingmode count
attr title "dropped packet byte length, count"
attr unit bytes
scalar Net10.rte[8].routing drop:sum 0
attr interpolationmode none
attr recordingmode sum
attr title "dropped packet byte length, sum"
attr unit bytes
par Net10.rte[8].queue[0] typename "\"node.L2Queue\""
par Net10.rte[8].queue[0] frameCapacity 100
par Net10.rte[8].queue[0] useCutThroughSwitching true
scalar Net10.rte[8].queue[0] rxBytes:count 0
attr interpolationmode none
attr recordingmode count
attr title "received packet byte length, count"
attr unit bytes
scalar Net10.rte[8].queue[0] rxBytes:sum 0
attr interpolationmode none
attr recordingmode sum
attr title "received packet byte length, sum"
attr unit bytes
statistic Net10.rte[8].queue[0] rxBytes:histogram
field count 0
field mean -nan
field stddev -nan
field min -nan
field max -nan
field sum 0
field sqrsum 0
attr interpolationmode none
attr recordingmode histogram
attr title "received packet byte length"
attr unit bytes
bin	-inf	0
bin	0	0
bin	1	0
scalar Net10.rte[8].queue[0] txBytes:count 0
attr interpolationmode none
attr recordingmode count
attr title "transmitting packet byte length, count"
attr unit bytes
scalar Net10.rte[8].queue[0] txBytes:sum 0
attr interpolationmode none
attr recordingmode sum
attr title "transmitting packet byte length, sum"
attr unit bytes
statistic Net10.rte[8].queue[0] txBytes:histogram
field count 0
field mean -nan
field stddev -nan
field min -nan
field max -nan
field sum 0
field sqrsum 0
attr interpolationmode none
attr recordingmode histogram
attr title "transmitting packet byte length"
attr unit bytes
bin	-inf	0
bin	0	0
bin	1	0
scalar Net10.rte[8].queue[0] busy:timeavg 0
attr interpolationmode sample-hold
attr recordingmode timeavg
attr title "server busy state, timeavg"
scalar Net10.rte[8].queue[0] qlen:timeavg 0
attr interpolationmode sample-hold
attr recordingmode timeavg
attr title "queue length, timeavg"
scalar Net10.rte[8].queue[0] qlen:max 0
attr interpolationmode sample-hold
attr recordingmode max
attr title "queue length, max"
scalar Net10.rte[8].queue[0] drop:count 0
attr interpolationmode none
attr recordingmode count
attr title "dropped packet byte length, count"
attr unit bytes
scalar Net10.rte[8].queue[0] drop:sum 0
attr interpolationmode none
attr recordingmode sum
attr title "dropped packet byte length, sum"
attr unit bytes
par Net10.rte[8].queue[1] typename "\"node.L2Queue\""
par Net10.rte[8].queue[1] frameCapacity 100
par Net10.rte[8].queue[1] useCutThroughSwitching true
scalar Net10.rte[8].queue[1] rxBytes:count 0
attr interpolationmode none
attr recordingmode count
attr title "received packet byte length, count"
attr unit bytes
scalar Net10.rte[8].queue[1] rxBytes:sum 0
attr interpolationmode none
attr recordingmode sum
attr title "received packet byte length, sum"
attr unit bytes
statistic Net10.rte[8].queue[1] rxBytes:histogram
field count 0
field mean -nan
field stddev -nan
field min -nan
field max -nan
field sum 0
field sqrsum 0
attr interpolationmode none
attr recordingmode histogram
attr title "received packet byte length"
attr unit bytes
bin	-inf	0
bin	0	0
bin	1	0
scalar Net10.rte[8].queue[1] txBytes:count 3562
attr interpolationmode none
attr recordingmode count
attr title "transmitting packet byte length, count"
attr unit bytes
scalar Net10.rte[8].queue[1] txBytes:sum 14589952
attr interpolationmode none
attr recordingmode sum
attr title "transmitting packet byte length, sum"
attr unit bytes
statistic Net10.rte[8].queue[1] txBytes:histogram
field count 3562
field mean 4096
field stddev 0
field min 4096
field max 4096
field sum 14589952
field sqrsum 59760443392
attr interpolationmode none
attr recordingmode histogram
attr title "transmitting packet byte length"
attr unit bytes
bin	-inf	0
bin	4095	0
bin	4096	3562
bin	4097	0
scalar Net10.rte[8].queue[1] busy:timeavg 0.09726634666667
attr interpolationmode sample-hold
attr recordingmode timeavg
attr title "server busy state, timeavg"
scalar Net10.rte[8].queue[1] qlen:timeavg 0.0050733930588333
attr interpolationmode sample-hold
attr recordingmode timeavg
attr title "queue length, timeavg"
scalar Net10.rte[8].queue[1] qlen:max 3
attr interpolationmode sample-hold
attr recordingmode max
attr title "queue length, max"
scalar Net10.rte[8].queue[1] drop:count 0
attr interpolationmode none
attr recordingmode count
attr title "dropped packet byte length, count"
attr unit bytes
scalar Net10.rte[8].queue[1] drop:sum 0
attr interpolationmode none
attr recordingmode sum
attr title "dropped packet byte length, sum"
attr unit bytes
par Net10.rte[8].queue[2] typename "\"node.L2Queue\""
par Net10.rte[8].queue[2] frameCapacity 100
par Net10.rte[8].queue[2] useCutThroughSwitching true
scalar Net10.rte[8].queue[2] rxBytes:count 0
attr interpolationmode none
attr recordingmode count
attr title "received packet byte length, count"
attr unit bytes
scalar Net10.rte[8].queue[2] rxBytes:sum 0
attr interpolationmode none
attr recordingmode sum
attr title "received packet byte length, sum"
attr unit bytes
statistic Net10.rte[8].queue[2] rxBytes:histogram
field count 0
field mean -nan
field stddev -nan
field min -nan
field max -nan
field sum 0
field sqrsum 0
attr interpolationmode none
attr recordingmode histogram
attr title "received packet byte length"
attr unit bytes
bin	-inf	0
bin	0	0
bin	1	0
scalar Net10.rte[8].queue[2] txBytes:count 0
attr interpolationmode none
attr recordingmode count
attr title "transmitting packet byte length, count"
attr unit bytes
scalar Net10.rte[8].queue[2] txBytes:sum 0
attr interpolationmode none
attr recordingmode sum
attr title "transmitting packet byte length, sum"
attr unit bytes
statistic Net10.rte[8].queue[2] txBytes:histogram
field count 0
field mean -nan
field stddev -nan
field min -nan
field max -nan
field sum 0
field sqrsum 0
attr interpolationmode none
attr recordingmode histogram
attr title "transmitting packet byte length"
attr unit bytes
bin	-inf	0
bin	0	0
bin	1	0
scalar Net10.rte[8].queue[2] busy:timeavg 0
attr interpolationmode sample-hold
attr recordingmode timeavg
attr title "server busy state, timeavg"
scalar Net10.rte[8].queue[2] qlen:timeavg 0
attr interpolationmode sample-hold
attr recordingmode timeavg
attr title "queue length, timeavg"
scalar Net10.rte[8].queue[2] qlen:max 0
attr interpolationmode sample-hold
attr recordingmode max
attr title "queue length, max"
scalar Net10.rte[8].queue[2] drop:count 0
attr interpolationmode none
attr recordingmode count
attr title "dropped packet byte length, count"
attr unit bytes
scalar Net10.rte[8].queue[2] drop:sum 0
attr interpolationmode none
attr recordingmode sum
attr title "dropped packet byte length, sum"
attr unit bytes
par Net10.rte[8] typename "\"node.Node\""
par Net10.rte[8] address 8
par Net10.rte[8] appType "\"App\""
par Net10.rte[9].app typename "\"node.App\""
par Net10.rte[9].app address 9
par Net10.rte[9].app destAddresses "\"1\""
par Net10.rte[9].app sendIaTime exponential(340ms)
attr unit s
par Net10.rte[9].app packetLength 4096byte
attr unit byte
scalar Net10.rte[9].app hopCount:mean -nan
attr interpolationmode none
attr recordingmode mean
attr title "hop count of arrived packets, mean"
scalar Net10.rte[9].app hopCount:max -nan
attr interpolationmode none
attr recordingmode max
attr title "hop count of arrived packets, max"
scalar Net10.rte[9].app endToEndDelay:mean -nan
attr interpolationmode none
attr recordingmode mean
attr title "end-to-end delay of arrived packets, mean"
attr unit s
scalar Net10.rte[9].app endToEndDelay:max -nan
attr interpolationmode none
attr recordingmode max
attr title "end-to-end delay of arrived packets, max"
attr unit s
par Net10.rte[9].routing typename "\"node.Routing\""
statistic Net10.rte[9].routing outputIf:histogram
field count 3485
field mean 2
field stddev 0
field min 2
field max 2
field sum 6970
field sqrsum 13940
attr interpolationmode none
attr recordingmode histogram
attr title "output interface for each routed packet"
bin	-inf	0
bin	1	0
bin	2	3485
bin	3	0
scalar Net10.rte[9].routing drop:count 0
attr interpolationmode none
attr recordingmode count
attr title "dropped packet byte length, count"
attr unit bytes
scalar Net10.rte[9].routing drop:sum 0
attr interpolationmode none
attr recordingmode sum
attr title "dropped packet byte length, sum"
attr unit bytes
par Net10.rte[9].queue[0] typename "\"node.L2Queue\""
par Net10.rte[9].queue[0] frameCapacity 100
par Net10.rte[9].queue[0] useCutThroughSwitching true
scalar Net10.rte[9].queue[0] rxBytes:count 0
attr interpolationmode none
attr recordingmode count
attr title "received packet byte length, count"
attr unit bytes
scalar Net10.rte[9].queue[0] rxBytes:sum 0
attr interpolationmode none
attr recordingmode sum
attr title "received packet byte length, sum"
attr unit bytes
statistic Net10.rte[9].queue[0] rxBytes:histogram
field count 0
field mean -nan
field stddev -nan
field min -nan
field max -nan
field sum 0
field sqrsum 0
attr interpolationmode none
attr recordingmode histogram
attr title "received packet byte length"
attr unit bytes
bin	-inf	0
bin	0	0
bin	1	0
scalar Net10.rte[9].queue[0] txBytes:count 0
attr interpolationmode none
attr recordingmode count
attr title "transmitting packet byte length, count"
attr unit bytes
scalar Net10.rte[9].queue[0] txBytes:sum 0
attr interpolationmode none
attr recordingmode sum
attr title "transmitting packet byte length, sum"
attr unit bytes
statistic Net10.rte[9].queue[0] txBytes:histogram
field count 0
field mean -nan
field stddev -nan
field min -nan
field max -nan
field sum 0
field sqrsum 0
attr interpolationmode none
attr recordingmode histogram
attr title "transmitting packet byte length"
attr unit bytes
bin	-inf	0
bin	0	0
bin	1	0
scalar Net10.rte[9].queue[0] busy:timeavg 0
attr interpolationmode sample-hold
attr recordingmode timeavg
attr title "server busy state, timeavg"
scalar Net10.rte[9].queue[0] qlen:timeavg 0
attr interpolationmode sample-hold
attr recordingmode timeavg
attr title "queue length, timeavg"
scalar Net10.rte[9].queue[0] qlen:max 0
attr interpolationmode sample-hold
attr recordingmode max
attr title "queue length, max"
scalar Net10.rte[9].queue[0] drop:count 0
attr interpolationmode none
attr recordingmode count
attr title "dropped packet byte length, count"
attr unit bytes
scalar Net10.rte[9].queue[0] drop:sum 0
attr interpolationmode none
attr recordingmode sum
attr title "dropped packet byte length, sum"
attr unit bytes
par Net10.rte[9].queue[1] typename "\"node.L2Queue\""
par Net10.rte[9].queue[1] frameCapacity 100
par Net10.rte[9].queue[1] useCutThroughSwitching true
scalar Net10.rte[9].queue[1] rxBytes:count 0
attr interpolationmode none
attr recordingmode count
attr title "received packet byte length, count"
attr unit bytes
scalar Net10.rte[9].queue[1] rxBytes:sum 0
attr interpolationmode none
attr recordingmode sum
attr title "received packet byte length, sum"
attr unit bytes
statistic Net10.rte[9].queue[1] rxBytes:histogram
field count 0
field mean -nan
field stddev -nan
field min -nan
field max -nan
field sum 0
field sqrsum 0
attr interpolationmode none
attr recordingmode histogram
attr title "received packet byte length"
attr unit bytes
bin	-inf	0
bin	0	0
bin	1	0
scalar Net10.rte[9].queue[1] txBytes:count 0
attr interpolationmode none
attr recordingmode count
attr title "transmitting packet byte length, count"
attr unit bytes
scalar Net10.rte[9].queue[1] txBytes:sum 0
attr interpolationmode none
attr recordingmode sum
attr title "transmitting packet byte length, sum"
attr unit bytes
statistic Net10.rte[9].queue[1] txBytes:histogram
field count 0
field mean -nan
field stddev -nan
field min -nan
field max -nan
field sum 0
field sqrsum 0
attr interpolationmode none
attr recordingmode histogram
attr title "transmitting packet byte length"
attr unit bytes
bin	-inf	0
bin	0	0
bin	1	0
scalar Net10.rte[9].queue[1] busy:timeavg 0
attr interpolationmode sample-hold
attr recordingmode timeavg
attr title "server busy state, timeavg"
scalar Net10.rte[9].queue[1] qlen:timeavg 0
attr interpolationmode sample-hold
attr recordingmode timeavg
attr title "queue length, timeavg"
scalar Net10.rte[9].queue[1] qlen:max 0
attr interpolationmode sample-hold
attr recordingmode max
attr title "queue length, max"
scalar Net10.rte[9].queue[1] drop:count 0
attr interpolationmode none
attr recordingmode count
attr title "dropped packet byte length, count"
attr unit bytes
scalar Net10.rte[9].queue[1] drop:sum 0
attr interpolationmode none
attr recordingmode sum
attr title "dropped packet byte length, sum"
attr unit bytes
par Net10.rte[9].queue[2] typename "\"node.L2Queue\""
par Net10.rte[9].queue[2] frameCapacity 100
par Net10.rte[9].queue[2] useCutThroughSwitching true
scalar Net10.rte[9].queue[2] rxBytes:count 0
attr interpolationmode none
attr recordingmode count
attr title "received packet byte length, count"
attr unit bytes
scalar Net10.rte[9].queue[2] rxBytes:sum 0
attr interpolationmode none
attr recordingmode sum
attr title "received packet byte length, sum"
attr unit bytes
statistic Net10.rte[9].queue[2] rxBytes:histogram
field count 0
field mean -nan
field stddev -nan
field min -nan
field max -nan
field sum 0
field sqrsum 0
attr interpolationmode none
attr recordingmode histogram
attr title "received packet byte length"
attr unit bytes
bin	-inf	0
bin	0	0
bin	1	0
scalar Net10.rte[9].queue[2] txBytes:count 3485
attr interpolationmode none
attr recordingmode count
attr title "transmitting packet byte length, count"
attr unit bytes
scalar Net10.rte[9].queue[2] txBytes:sum 14274560
attr interpolationmode none
attr recordingmode sum
attr title "transmitting packet byte length, sum"
attr unit bytes
statistic Net10.rte[9].queue[2] txBytes:histogram
field count 3485
field mean 4096
field stddev 0
field min 4096
field max 4096
field sum 14274560
field sqrsum 58468597760
attr interpolationmode none
attr recordingmode histogram
attr title "transmitting packet byte length"
attr unit bytes
bin	-inf	0
bin	4095	0
bin	4096	3485
bin	4097	0
scalar Net10.rte[9].queue[2] busy:timeavg 0.095163733333336
attr interpolationmode sample-hold
attr recordingmode timeavg
attr title "server busy state, timeavg"
scalar Net10.rte[9].queue[2] qlen:timeavg 0.0048774680434608
attr interpolationmode sample-hold
attr recordingmode timeavg
attr title "queue length, timeavg"
scalar Net10.rte[9].queue[2] qlen:max 3
attr interpolationmode sample-hold
attr recordingmode max
attr title "queue length, max"
scalar Net10.rte[9].queue[2] drop:count 0
attr interpolationmode none
attr recordingmode count
attr title "dropped packet byte length, count"
attr unit bytes
scalar Net10.rte[9].queue[2] drop:sum 0
attr interpolationmode none
attr recordingmode sum
attr title "dropped packet byte length, sum"
attr unit bytes
par Net10.rte[9] typename "\"node.Node\""
par Net10.rte[9] address 9
par Net10.rte[9] appType "\"App\""
par Net10 typename "\"networks.Net10\""

