version 3
run Net10Experiment-3-20211207-20:10:22-304023
attr configname Net10Experiment
attr datetime 20211207-20:10:22
attr datetimef 20211207-201022
attr experiment Net10Experiment
attr inifile omnetpp.ini
attr iterationvars "$iaMean=180, $cutThrough=true"
attr iterationvarsd iaMean=180/cutThrough=true
attr iterationvarsf iaMean=180,cutThrough=true-
attr measurement "$iaMean=180, $cutThrough=true"
attr network networks.Net10
attr processid 304023
attr repetition 0
attr replication #0
attr resultdir results
attr runnumber 3
attr seedset 3
itervar cutThrough true
itervar iaMean 180
config cmdenv-redirect-output true
config network networks.Net10
config **.destAddresses "\"1\""
config **.app.sendIaTime "exponential(180 ms)"
config **.queue[*].useCutThroughSwitching true
config **.queue[*].frameCapacity 100
config **.vector-recording false
config sim-time-limit 1200s
config **.appType "\"App\""
config **.app.packetLength "4096 bytes"

par Net10.rte[1].port$o[0].channel typename "\"networks.Net10.C\""
par Net10.rte[1].port$o[0].channel disabled false
attr mutable ""
par Net10.rte[1].port$o[0].channel delay 0.000595718s
attr mutable ""
attr unit s
par Net10.rte[1].port$o[0].channel datarate 1e+06bps
attr mutable ""
attr unit bps
par Net10.rte[1].port$o[0].channel ber 0
attr mutable ""
par Net10.rte[1].port$o[0].channel per 0
attr mutable ""
par Net10.rte[0].port$o[0].channel typename "\"networks.Net10.C\""
par Net10.rte[0].port$o[0].channel disabled false
attr mutable ""
par Net10.rte[0].port$o[0].channel delay 0.000163652s
attr mutable ""
attr unit s
par Net10.rte[0].port$o[0].channel datarate 1e+06bps
attr mutable ""
attr unit bps
par Net10.rte[0].port$o[0].channel ber 0
attr mutable ""
par Net10.rte[0].port$o[0].channel per 0
attr mutable ""
par Net10.rte[0].port$o[1].channel typename "\"networks.Net10.C\""
par Net10.rte[0].port$o[1].channel disabled false
attr mutable ""
par Net10.rte[0].port$o[1].channel delay 0.000737333s
attr mutable ""
attr unit s
par Net10.rte[0].port$o[1].channel datarate 1e+06bps
attr mutable ""
attr unit bps
par Net10.rte[0].port$o[1].channel ber 0
attr mutable ""
par Net10.rte[0].port$o[1].channel per 0
attr mutable ""
par Net10.rte[2].port$o[0].channel typename "\"networks.Net10.C\""
par Net10.rte[2].port$o[0].channel disabled false
attr mutable ""
par Net10.rte[2].port$o[0].channel delay 0.000855954s
attr mutable ""
attr unit s
par Net10.rte[2].port$o[0].channel datarate 1e+06bps
attr mutable ""
attr unit bps
par Net10.rte[2].port$o[0].channel ber 0
attr mutable ""
par Net10.rte[2].port$o[0].channel per 0
attr mutable ""
par Net10.rte[2].port$o[1].channel typename "\"networks.Net10.C\""
par Net10.rte[2].port$o[1].channel disabled false
attr mutable ""
par Net10.rte[2].port$o[1].channel delay 0.000361814s
attr mutable ""
attr unit s
par Net10.rte[2].port$o[1].channel datarate 1e+06bps
attr mutable ""
attr unit bps
par Net10.rte[2].port$o[1].channel ber 0
attr mutable ""
par Net10.rte[2].port$o[1].channel per 0
attr mutable ""
par Net10.rte[5].port$o[0].channel typename "\"networks.Net10.C\""
par Net10.rte[5].port$o[0].channel disabled false
attr mutable ""
par Net10.rte[5].port$o[0].channel delay 0.000209196s
attr mutable ""
attr unit s
par Net10.rte[5].port$o[0].channel datarate 1e+06bps
attr mutable ""
attr unit bps
par Net10.rte[5].port$o[0].channel ber 0
attr mutable ""
par Net10.rte[5].port$o[0].channel per 0
attr mutable ""
par Net10.rte[5].port$o[1].channel typename "\"networks.Net10.C\""
par Net10.rte[5].port$o[1].channel disabled false
attr mutable ""
par Net10.rte[5].port$o[1].channel delay 0.000559745s
attr mutable ""
attr unit s
par Net10.rte[5].port$o[1].channel datarate 1e+06bps
attr mutable ""
attr unit bps
par Net10.rte[5].port$o[1].channel ber 0
attr mutable ""
par Net10.rte[5].port$o[1].channel per 0
attr mutable ""
par Net10.rte[7].port$o[0].channel typename "\"networks.Net10.C\""
par Net10.rte[7].port$o[0].channel disabled false
attr mutable ""
par Net10.rte[7].port$o[0].channel delay 0.00061238s
attr mutable ""
attr unit s
par Net10.rte[7].port$o[0].channel datarate 1e+06bps
attr mutable ""
attr unit bps
par Net10.rte[7].port$o[0].channel ber 0
attr mutable ""
par Net10.rte[7].port$o[0].channel per 0
attr mutable ""
par Net10.rte[7].port$o[1].channel typename "\"networks.Net10.C\""
par Net10.rte[7].port$o[1].channel disabled false
attr mutable ""
par Net10.rte[7].port$o[1].channel delay 0.000903652s
attr mutable ""
attr unit s
par Net10.rte[7].port$o[1].channel datarate 1e+06bps
attr mutable ""
attr unit bps
par Net10.rte[7].port$o[1].channel ber 0
attr mutable ""
par Net10.rte[7].port$o[1].channel per 0
attr mutable ""
par Net10.rte[9].port$o[0].channel typename "\"networks.Net10.C\""
par Net10.rte[9].port$o[0].channel disabled false
attr mutable ""
par Net10.rte[9].port$o[0].channel delay 0.000493356s
attr mutable ""
attr unit s
par Net10.rte[9].port$o[0].channel datarate 1e+06bps
attr mutable ""
attr unit bps
par Net10.rte[9].port$o[0].channel ber 0
attr mutable ""
par Net10.rte[9].port$o[0].channel per 0
attr mutable ""
par Net10.rte[9].port$o[1].channel typename "\"networks.Net10.C\""
par Net10.rte[9].port$o[1].channel disabled false
attr mutable ""
par Net10.rte[9].port$o[1].channel delay 0.000906664s
attr mutable ""
attr unit s
par Net10.rte[9].port$o[1].channel datarate 1e+06bps
attr mutable ""
attr unit bps
par Net10.rte[9].port$o[1].channel ber 0
attr mutable ""
par Net10.rte[9].port$o[1].channel per 0
attr mutable ""
par Net10.rte[8].port$o[0].channel typename "\"networks.Net10.C\""
par Net10.rte[8].port$o[0].channel disabled false
attr mutable ""
par Net10.rte[8].port$o[0].channel delay 0.000116873s
attr mutable ""
attr unit s
par Net10.rte[8].port$o[0].channel datarate 1e+06bps
attr mutable ""
attr unit bps
par Net10.rte[8].port$o[0].channel ber 0
attr mutable ""
par Net10.rte[8].port$o[0].channel per 0
attr mutable ""
par Net10.rte[8].port$o[1].channel typename "\"networks.Net10.C\""
par Net10.rte[8].port$o[1].channel disabled false
attr mutable ""
par Net10.rte[8].port$o[1].channel delay 0.000213027s
attr mutable ""
attr unit s
par Net10.rte[8].port$o[1].channel datarate 1e+06bps
attr mutable ""
attr unit bps
par Net10.rte[8].port$o[1].channel ber 0
attr mutable ""
par Net10.rte[8].port$o[1].channel per 0
attr mutable ""
par Net10.rte[4].port$o[0].channel typename "\"networks.Net10.C\""
par Net10.rte[4].port$o[0].channel disabled false
attr mutable ""
par Net10.rte[4].port$o[0].channel delay 0.000136568s
attr mutable ""
attr unit s
par Net10.rte[4].port$o[0].channel datarate 1e+06bps
attr mutable ""
attr unit bps
par Net10.rte[4].port$o[0].channel ber 0
attr mutable ""
par Net10.rte[4].port$o[0].channel per 0
attr mutable ""
par Net10.rte[4].port$o[1].channel typename "\"networks.Net10.C\""
par Net10.rte[4].port$o[1].channel disabled false
attr mutable ""
par Net10.rte[4].port$o[1].channel delay 0.000286519s
attr mutable ""
attr unit s
par Net10.rte[4].port$o[1].channel datarate 1e+06bps
attr mutable ""
attr unit bps
par Net10.rte[4].port$o[1].channel ber 0
attr mutable ""
par Net10.rte[4].port$o[1].channel per 0
attr mutable ""
par Net10.rte[3].port$o[0].channel typename "\"networks.Net10.C\""
par Net10.rte[3].port$o[0].channel disabled false
attr mutable ""
par Net10.rte[3].port$o[0].channel delay 0.000323099s
attr mutable ""
attr unit s
par Net10.rte[3].port$o[0].channel datarate 1e+06bps
attr mutable ""
attr unit bps
par Net10.rte[3].port$o[0].channel ber 0
attr mutable ""
par Net10.rte[3].port$o[0].channel per 0
attr mutable ""
par Net10.rte[3].port$o[1].channel typename "\"networks.Net10.C\""
par Net10.rte[3].port$o[1].channel disabled false
attr mutable ""
par Net10.rte[3].port$o[1].channel delay 0.00014632s
attr mutable ""
attr unit s
par Net10.rte[3].port$o[1].channel datarate 1e+06bps
attr mutable ""
attr unit bps
par Net10.rte[3].port$o[1].channel ber 0
attr mutable ""
par Net10.rte[3].port$o[1].channel per 0
attr mutable ""
par Net10.rte[1].port$o[1].channel typename "\"networks.Net10.C\""
par Net10.rte[1].port$o[1].channel disabled false
attr mutable ""
par Net10.rte[1].port$o[1].channel delay 0.000184196s
attr mutable ""
attr unit s
par Net10.rte[1].port$o[1].channel datarate 1e+06bps
attr mutable ""
attr unit bps
par Net10.rte[1].port$o[1].channel ber 0
attr mutable ""
par Net10.rte[1].port$o[1].channel per 0
attr mutable ""
par Net10.rte[3].port$o[2].channel typename "\"networks.Net10.C\""
par Net10.rte[3].port$o[2].channel disabled false
attr mutable ""
par Net10.rte[3].port$o[2].channel delay 0.000496729s
attr mutable ""
attr unit s
par Net10.rte[3].port$o[2].channel datarate 1e+06bps
attr mutable ""
attr unit bps
par Net10.rte[3].port$o[2].channel ber 0
attr mutable ""
par Net10.rte[3].port$o[2].channel per 0
attr mutable ""
par Net10.rte[2].port$o[2].channel typename "\"networks.Net10.C\""
par Net10.rte[2].port$o[2].channel disabled false
attr mutable ""
par Net10.rte[2].port$o[2].channel delay 0.000725341s
attr mutable ""
attr unit s
par Net10.rte[2].port$o[2].channel datarate 1e+06bps
attr mutable ""
attr unit bps
par Net10.rte[2].port$o[2].channel ber 0
attr mutable ""
par Net10.rte[2].port$o[2].channel per 0
attr mutable ""
par Net10.rte[2].port$o[3].channel typename "\"networks.Net10.C\""
par Net10.rte[2].port$o[3].channel disabled false
attr mutable ""
par Net10.rte[2].port$o[3].channel delay 0.000126889s
attr mutable ""
attr unit s
par Net10.rte[2].port$o[3].channel datarate 1e+06bps
attr mutable ""
attr unit bps
par Net10.rte[2].port$o[3].channel ber 0
attr mutable ""
par Net10.rte[2].port$o[3].channel per 0
attr mutable ""
par Net10.rte[4].port$o[2].channel typename "\"networks.Net10.C\""
par Net10.rte[4].port$o[2].channel disabled false
attr mutable ""
par Net10.rte[4].port$o[2].channel delay 0.000230833s
attr mutable ""
attr unit s
par Net10.rte[4].port$o[2].channel datarate 1e+06bps
attr mutable ""
attr unit bps
par Net10.rte[4].port$o[2].channel ber 0
attr mutable ""
par Net10.rte[4].port$o[2].channel per 0
attr mutable ""
par Net10.rte[4].port$o[3].channel typename "\"networks.Net10.C\""
par Net10.rte[4].port$o[3].channel disabled false
attr mutable ""
par Net10.rte[4].port$o[3].channel delay 0.00051115s
attr mutable ""
attr unit s
par Net10.rte[4].port$o[3].channel datarate 1e+06bps
attr mutable ""
attr unit bps
par Net10.rte[4].port$o[3].channel ber 0
attr mutable ""
par Net10.rte[4].port$o[3].channel per 0
attr mutable ""
par Net10.rte[6].port$o[0].channel typename "\"networks.Net10.C\""
par Net10.rte[6].port$o[0].channel disabled false
attr mutable ""
par Net10.rte[6].port$o[0].channel delay 0.000507855s
attr mutable ""
attr unit s
par Net10.rte[6].port$o[0].channel datarate 1e+06bps
attr mutable ""
attr unit bps
par Net10.rte[6].port$o[0].channel ber 0
attr mutable ""
par Net10.rte[6].port$o[0].channel per 0
attr mutable ""
par Net10.rte[6].port$o[1].channel typename "\"networks.Net10.C\""
par Net10.rte[6].port$o[1].channel disabled false
attr mutable ""
par Net10.rte[6].port$o[1].channel delay 0.00068423s
attr mutable ""
attr unit s
par Net10.rte[6].port$o[1].channel datarate 1e+06bps
attr mutable ""
attr unit bps
par Net10.rte[6].port$o[1].channel ber 0
attr mutable ""
par Net10.rte[6].port$o[1].channel per 0
attr mutable ""
par Net10.rte[8].port$o[2].channel typename "\"networks.Net10.C\""
par Net10.rte[8].port$o[2].channel disabled false
attr mutable ""
par Net10.rte[8].port$o[2].channel delay 0.000294019s
attr mutable ""
attr unit s
par Net10.rte[8].port$o[2].channel datarate 1e+06bps
attr mutable ""
attr unit bps
par Net10.rte[8].port$o[2].channel ber 0
attr mutable ""
par Net10.rte[8].port$o[2].channel per 0
attr mutable ""
par Net10.rte[9].port$o[2].channel typename "\"networks.Net10.C\""
par Net10.rte[9].port$o[2].channel disabled false
attr mutable ""
par Net10.rte[9].port$o[2].channel delay 0.000350639s
attr mutable ""
attr unit s
par Net10.rte[9].port$o[2].channel datarate 1e+06bps
attr mutable ""
attr unit bps
par Net10.rte[9].port$o[2].channel ber 0
attr mutable ""
par Net10.rte[9].port$o[2].channel per 0
attr mutable ""
par Net10.rte[6].port$o[2].channel typename "\"networks.Net10.C\""
par Net10.rte[6].port$o[2].channel disabled false
attr mutable ""
par Net10.rte[6].port$o[2].channel delay 0.000418515s
attr mutable ""
attr unit s
par Net10.rte[6].port$o[2].channel datarate 1e+06bps
attr mutable ""
attr unit bps
par Net10.rte[6].port$o[2].channel ber 0
attr mutable ""
par Net10.rte[6].port$o[2].channel per 0
attr mutable ""
par Net10.rte[6].port$o[3].channel typename "\"networks.Net10.C\""
par Net10.rte[6].port$o[3].channel disabled false
attr mutable ""
par Net10.rte[6].port$o[3].channel delay 0.000708629s
attr mutable ""
attr unit s
par Net10.rte[6].port$o[3].channel datarate 1e+06bps
attr mutable ""
attr unit bps
par Net10.rte[6].port$o[3].channel ber 0
attr mutable ""
par Net10.rte[6].port$o[3].channel per 0
attr mutable ""
par Net10.rte[7].port$o[2].channel typename "\"networks.Net10.C\""
par Net10.rte[7].port$o[2].channel disabled false
attr mutable ""
par Net10.rte[7].port$o[2].channel delay 0.000543372s
attr mutable ""
attr unit s
par Net10.rte[7].port$o[2].channel datarate 1e+06bps
attr mutable ""
attr unit bps
par Net10.rte[7].port$o[2].channel ber 0
attr mutable ""
par Net10.rte[7].port$o[2].channel per 0
attr mutable ""
par Net10.rte[5].port$o[2].channel typename "\"networks.Net10.C\""
par Net10.rte[5].port$o[2].channel disabled false
attr mutable ""
par Net10.rte[5].port$o[2].channel delay 0.000631777s
attr mutable ""
attr unit s
par Net10.rte[5].port$o[2].channel datarate 1e+06bps
attr mutable ""
attr unit bps
par Net10.rte[5].port$o[2].channel ber 0
attr mutable ""
par Net10.rte[5].port$o[2].channel per 0
attr mutable ""
par Net10.rte[6].port$o[4].channel typename "\"networks.Net10.C\""
par Net10.rte[6].port$o[4].channel disabled false
attr mutable ""
par Net10.rte[6].port$o[4].channel delay 0.000921971s
attr mutable ""
attr unit s
par Net10.rte[6].port$o[4].channel datarate 1e+06bps
attr mutable ""
attr unit bps
par Net10.rte[6].port$o[4].channel ber 0
attr mutable ""
par Net10.rte[6].port$o[4].channel per 0
attr mutable ""
par Net10.rte[0].port$o[2].channel typename "\"networks.Net10.C\""
par Net10.rte[0].port$o[2].channel disabled false
attr mutable ""
par Net10.rte[0].port$o[2].channel delay 0.000121584s
attr mutable ""
attr unit s
par Net10.rte[0].port$o[2].channel datarate 1e+06bps
attr mutable ""
attr unit bps
par Net10.rte[0].port$o[2].channel ber 0
attr mutable ""
par Net10.rte[0].port$o[2].channel per 0
attr mutable ""
par Net10.rte[5].port$o[3].channel typename "\"networks.Net10.C\""
par Net10.rte[5].port$o[3].channel disabled false
attr mutable ""
par Net10.rte[5].port$o[3].channel delay 0.000789244s
attr mutable ""
attr unit s
par Net10.rte[5].port$o[3].channel datarate 1e+06bps
attr mutable ""
attr unit bps
par Net10.rte[5].port$o[3].channel ber 0
attr mutable ""
par Net10.rte[5].port$o[3].channel per 0
attr mutable ""
par Net10.rte[1].port$o[2].channel typename "\"networks.Net10.C\""
par Net10.rte[1].port$o[2].channel disabled false
attr mutable ""
par Net10.rte[1].port$o[2].channel delay 0.000602969s
attr mutable ""
attr unit s
par Net10.rte[1].port$o[2].channel datarate 1e+06bps
attr mutable ""
attr unit bps
par Net10.rte[1].port$o[2].channel ber 0
attr mutable ""
par Net10.rte[1].port$o[2].channel per 0
attr mutable ""
par Net10.rte[2].port$o[4].channel typename "\"networks.Net10.C\""
par Net10.rte[2].port$o[4].channel disabled false
attr mutable ""
par Net10.rte[2].port$o[4].channel delay 0.000976283s
attr mutable ""
attr unit s
par Net10.rte[2].port$o[4].channel datarate 1e+06bps
attr mutable ""
attr unit bps
par Net10.rte[2].port$o[4].channel ber 0
attr mutable ""
par Net10.rte[2].port$o[4].channel per 0
attr mutable ""
par Net10.rte[0].app typename "\"node.App\""
par Net10.rte[0].app address 0
par Net10.rte[0].app destAddresses "\"1\""
par Net10.rte[0].app sendIaTime exponential(180ms)
attr unit s
par Net10.rte[0].app packetLength 4096byte
attr unit byte
scalar Net10.rte[0].app hopCount:mean -nan
attr interpolationmode none
attr recordingmode mean
attr title "hop count of arrived packets, mean"
scalar Net10.rte[0].app hopCount:max -nan
attr interpolationmode none
attr recordingmode max
attr title "hop count of arrived packets, max"
scalar Net10.rte[0].app endToEndDelay:mean -nan
attr interpolationmode none
attr recordingmode mean
attr title "end-to-end delay of arrived packets, mean"
attr unit s
scalar Net10.rte[0].app endToEndDelay:max -nan
attr interpolationmode none
attr recordingmode max
attr title "end-to-end delay of arrived packets, max"
attr unit s
par Net10.rte[0].routing typename "\"node.Routing\""
statistic Net10.rte[0].routing outputIf:histogram
field count 33455
field mean 0
field stddev 0
field min 0
field max 0
field sum 0
field sqrsum 0
attr interpolationmode none
attr recordingmode histogram
attr title "output interface for each routed packet"
bin	-inf	0
bin	-0.5	0
bin	-0.48	0
bin	-0.46	0
bin	-0.44	0
bin	-0.42	0
bin	-0.4	0
bin	-0.38	0
bin	-0.36	0
bin	-0.34	0
bin	-0.32	0
bin	-0.3	0
bin	-0.28	0
bin	-0.26	0
bin	-0.24	0
bin	-0.22	0
bin	-0.2	0
bin	-0.18	0
bin	-0.16	0
bin	-0.14	0
bin	-0.12	0
bin	-0.1	0
bin	-0.08	0
bin	-0.06	0
bin	-0.04	0
bin	-0.02	0
bin	0	33455
bin	0.02	0
bin	0.04	0
bin	0.06	0
bin	0.08	0
bin	0.1	0
bin	0.12	0
bin	0.14	0
bin	0.16	0
bin	0.18	0
bin	0.2	0
bin	0.22	0
bin	0.24	0
bin	0.26	0
bin	0.28	0
bin	0.3	0
bin	0.32	0
bin	0.34	0
bin	0.36	0
bin	0.38	0
bin	0.4	0
bin	0.42	0
bin	0.44	0
bin	0.46	0
bin	0.48	0
bin	0.5	0
scalar Net10.rte[0].routing drop:count 0
attr interpolationmode none
attr recordingmode count
attr title "dropped packet byte length, count"
attr unit bytes
scalar Net10.rte[0].routing drop:sum 0
attr interpolationmode none
attr recordingmode sum
attr title "dropped packet byte length, sum"
attr unit bytes
par Net10.rte[0].queue[0] typename "\"node.L2Queue\""
par Net10.rte[0].queue[0] frameCapacity 100
par Net10.rte[0].queue[0] useCutThroughSwitching true
scalar Net10.rte[0].queue[0] rxBytes:count 0
attr interpolationmode none
attr recordingmode count
attr title "received packet byte length, count"
attr unit bytes
scalar Net10.rte[0].queue[0] rxBytes:sum 0
attr interpolationmode none
attr recordingmode sum
attr title "received packet byte length, sum"
attr unit bytes
statistic Net10.rte[0].queue[0] rxBytes:histogram
field count 0
field mean -nan
field stddev -nan
field min -nan
field max -nan
field sum 0
field sqrsum 0
attr interpolationmode none
attr recordingmode histogram
attr title "received packet byte length"
attr unit bytes
bin	-inf	0
bin	0	0
bin	1	0
scalar Net10.rte[0].queue[0] txBytes:count 33455
attr interpolationmode none
attr recordingmode count
attr title "transmitting packet byte length, count"
attr unit bytes
scalar Net10.rte[0].queue[0] txBytes:sum 137031680
attr interpolationmode none
attr recordingmode sum
attr title "transmitting packet byte length, sum"
attr unit bytes
statistic Net10.rte[0].queue[0] txBytes:histogram
field count 33455
field mean 4096
field stddev 0
field min 4096
field max 4096
field sum 137031680
field sqrsum 561281761280
attr interpolationmode none
attr recordingmode histogram
attr title "transmitting packet byte length"
attr unit bytes
bin	-inf	0
bin	4095	0
bin	4096	33455
bin	4097	0
scalar Net10.rte[0].queue[0] busy:timeavg 0.91354453333338
attr interpolationmode sample-hold
attr recordingmode timeavg
attr title "server busy state, timeavg"
scalar Net10.rte[0].queue[0] qlen:timeavg 3.5156114898496
attr interpolationmode sample-hold
attr recordingmode timeavg
attr title "queue length, timeavg"
scalar Net10.rte[0].queue[0] qlen:max 28
attr interpolationmode sample-hold
attr recordingmode max
attr title "queue length, max"
scalar Net10.rte[0].queue[0] drop:count 0
attr interpolationmode none
attr recordingmode count
attr title "dropped packet byte length, count"
attr unit bytes
scalar Net10.rte[0].queue[0] drop:sum 0
attr interpolationmode none
attr recordingmode sum
attr title "dropped packet byte length, sum"
attr unit bytes
par Net10.rte[0].queue[1] typename "\"node.L2Queue\""
par Net10.rte[0].queue[1] frameCapacity 100
par Net10.rte[0].queue[1] useCutThroughSwitching true
scalar Net10.rte[0].queue[1] rxBytes:count 0
attr interpolationmode none
attr recordingmode count
attr title "received packet byte length, count"
attr unit bytes
scalar Net10.rte[0].queue[1] rxBytes:sum 0
attr interpolationmode none
attr recordingmode sum
attr title "received packet byte length, sum"
attr unit bytes
statistic Net10.rte[0].queue[1] rxBytes:histogram
field count 0
field mean -nan
field stddev -nan
field min -nan
field max -nan
field sum 0
field sqrsum 0
attr interpolationmode none
attr recordingmode histogram
attr title "received packet byte length"
attr unit bytes
bin	-inf	0
bin	0	0
bin	1	0
scalar Net10.rte[0].queue[1] txBytes:count 0
attr interpolationmode none
attr recordingmode count
attr title "transmitting packet byte length, count"
attr unit bytes
scalar Net10.rte[0].queue[1] txBytes:sum 0
attr interpolationmode none
attr recordingmode sum
attr title "transmitting packet byte length, sum"
attr unit bytes
statistic Net10.rte[0].queue[1] txBytes:histogram
field count 0
field mean -nan
field stddev -nan
field min -nan
field max -nan
field sum 0
field sqrsum 0
attr interpolationmode none
attr recordingmode histogram
attr title "transmitting packet byte length"
attr unit bytes
bin	-inf	0
bin	0	0
bin	1	0
scalar Net10.rte[0].queue[1] busy:timeavg 0
attr interpolationmode sample-hold
attr recordingmode timeavg
attr title "server busy state, timeavg"
scalar Net10.rte[0].queue[1] qlen:timeavg 0
attr interpolationmode sample-hold
attr recordingmode timeavg
attr title "queue length, timeavg"
scalar Net10.rte[0].queue[1] qlen:max 0
attr interpolationmode sample-hold
attr recordingmode max
attr title "queue length, max"
scalar Net10.rte[0].queue[1] drop:count 0
attr interpolationmode none
attr recordingmode count
attr title "dropped packet byte length, count"
attr unit bytes
scalar Net10.rte[0].queue[1] drop:sum 0
attr interpolationmode none
attr recordingmode sum
attr title "dropped packet byte length, sum"
attr unit bytes
par Net10.rte[0].queue[2] typename "\"node.L2Queue\""
par Net10.rte[0].queue[2] frameCapacity 100
par Net10.rte[0].queue[2] useCutThroughSwitching true
scalar Net10.rte[0].queue[2] rxBytes:count 26813
attr interpolationmode none
attr recordingmode count
attr title "received packet byte length, count"
attr unit bytes
scalar Net10.rte[0].queue[2] rxBytes:sum 109826048
attr interpolationmode none
attr recordingmode sum
attr title "received packet byte length, sum"
attr unit bytes
statistic Net10.rte[0].queue[2] rxBytes:histogram
field count 26813
field mean 4096
field stddev 0
field min 4096
field max 4096
field sum 109826048
field sqrsum 449847492608
attr interpolationmode none
attr recordingmode histogram
attr title "received packet byte length"
attr unit bytes
bin	-inf	0
bin	4095	0
bin	4096	26813
bin	4097	0
scalar Net10.rte[0].queue[2] txBytes:count 0
attr interpolationmode none
attr recordingmode count
attr title "transmitting packet byte length, count"
attr unit bytes
scalar Net10.rte[0].queue[2] txBytes:sum 0
attr interpolationmode none
attr recordingmode sum
attr title "transmitting packet byte length, sum"
attr unit bytes
statistic Net10.rte[0].queue[2] txBytes:histogram
field count 0
field mean -nan
field stddev -nan
field min -nan
field max -nan
field sum 0
field sqrsum 0
attr interpolationmode none
attr recordingmode histogram
attr title "transmitting packet byte length"
attr unit bytes
bin	-inf	0
bin	0	0
bin	1	0
scalar Net10.rte[0].queue[2] busy:timeavg 0
attr interpolationmode sample-hold
attr recordingmode timeavg
attr title "server busy state, timeavg"
scalar Net10.rte[0].queue[2] qlen:timeavg 0
attr interpolationmode sample-hold
attr recordingmode timeavg
attr title "queue length, timeavg"
scalar Net10.rte[0].queue[2] qlen:max 0
attr interpolationmode sample-hold
attr recordingmode max
attr title "queue length, max"
scalar Net10.rte[0].queue[2] drop:count 0
attr interpolationmode none
attr recordingmode count
attr title "dropped packet byte length, count"
attr unit bytes
scalar Net10.rte[0].queue[2] drop:sum 0
attr interpolationmode none
attr recordingmode sum
attr title "dropped packet byte length, sum"
attr unit bytes
par Net10.rte[0] typename "\"node.Node\""
par Net10.rte[0] address 0
par Net10.rte[0] appType "\"App\""
par Net10.rte[1].app typename "\"node.App\""
par Net10.rte[1].app address 1
par Net10.rte[1].app destAddresses "\"1\""
par Net10.rte[1].app sendIaTime exponential(180ms)
attr unit s
par Net10.rte[1].app packetLength 4096byte
attr unit byte
scalar Net10.rte[1].app hopCount:mean 1.9966494652606
attr interpolationmode none
attr recordingmode mean
attr title "hop count of arrived packets, mean"
scalar Net10.rte[1].app hopCount:max 4
attr interpolationmode none
attr recordingmode max
attr title "hop count of arrived packets, max"
scalar Net10.rte[1].app endToEndDelay:mean 0.08801415420837
attr interpolationmode none
attr recordingmode mean
attr title "end-to-end delay of arrived packets, mean"
attr unit s
scalar Net10.rte[1].app endToEndDelay:max 1.23228998906
attr interpolationmode none
attr recordingmode max
attr title "end-to-end delay of arrived packets, max"
attr unit s
par Net10.rte[1].routing typename "\"node.Routing\""
statistic Net10.rte[1].routing outputIf:histogram
field count 66855
field mean -1
field stddev 0
field min -1
field max -1
field sum -66855
field sqrsum 66855
attr interpolationmode none
attr recordingmode histogram
attr title "output interface for each routed packet"
bin	-inf	0
bin	-2	0
bin	-1	66855
bin	0	0
scalar Net10.rte[1].routing drop:count 0
attr interpolationmode none
attr recordingmode count
attr title "dropped packet byte length, count"
attr unit bytes
scalar Net10.rte[1].routing drop:sum 0
attr interpolationmode none
attr recordingmode sum
attr title "dropped packet byte length, sum"
attr unit bytes
par Net10.rte[1].queue[0] typename "\"node.L2Queue\""
par Net10.rte[1].queue[0] frameCapacity 100
par Net10.rte[1].queue[0] useCutThroughSwitching true
scalar Net10.rte[1].queue[0] rxBytes:count 33455
attr interpolationmode none
attr recordingmode count
attr title "received packet byte length, count"
attr unit bytes
scalar Net10.rte[1].queue[0] rxBytes:sum 137031680
attr interpolationmode none
attr recordingmode sum
attr title "received packet byte length, sum"
attr unit bytes
statistic Net10.rte[1].queue[0] rxBytes:histogram
field count 33455
field mean 4096
field stddev 0
field min 4096
field max 4096
field sum 137031680
field sqrsum 561281761280
attr interpolationmode none
attr recordingmode histogram
attr title "received packet byte length"
attr unit bytes
bin	-inf	0
bin	4095	0
bin	4096	33455
bin	4097	0
scalar Net10.rte[1].queue[0] txBytes:count 0
attr interpolationmode none
attr recordingmode count
attr title "transmitting packet byte length, count"
attr unit bytes
scalar Net10.rte[1].queue[0] txBytes:sum 0
attr interpolationmode none
attr recordingmode sum
attr title "transmitting packet byte length, sum"
attr unit bytes
statistic Net10.rte[1].queue[0] txBytes:histogram
field count 0
field mean -nan
field stddev -nan
field min -nan
field max -nan
field sum 0
field sqrsum 0
attr interpolationmode none
attr recordingmode histogram
attr title "transmitting packet byte length"
attr unit bytes
bin	-inf	0
bin	0	0
bin	1	0
scalar Net10.rte[1].queue[0] busy:timeavg 0
attr interpolationmode sample-hold
attr recordingmode timeavg
attr title "server busy state, timeavg"
scalar Net10.rte[1].queue[0] qlen:timeavg 0
attr interpolationmode sample-hold
attr recordingmode timeavg
attr title "queue length, timeavg"
scalar Net10.rte[1].queue[0] qlen:max 0
attr interpolationmode sample-hold
attr recordingmode max
attr title "queue length, max"
scalar Net10.rte[1].queue[0] drop:count 0
attr interpolationmode none
attr recordingmode count
attr title "dropped packet byte length, count"
attr unit bytes
scalar Net10.rte[1].queue[0] drop:sum 0
attr interpolationmode none
attr recordingmode sum
attr title "dropped packet byte length, sum"
attr unit bytes
par Net10.rte[1].queue[1] typename "\"node.L2Queue\""
par Net10.rte[1].queue[1] frameCapacity 100
par Net10.rte[1].queue[1] useCutThroughSwitching true
scalar Net10.rte[1].queue[1] rxBytes:count 6712
attr interpolationmode none
attr recordingmode count
attr title "received packet byte length, count"
attr unit bytes
scalar Net10.rte[1].queue[1] rxBytes:sum 27492352
attr interpolationmode none
attr recordingmode sum
attr title "received packet byte length, sum"
attr unit bytes
statistic Net10.rte[1].queue[1] rxBytes:histogram
field count 6712
field mean 4096
field stddev 0
field min 4096
field max 4096
field sum 27492352
field sqrsum 112608673792
attr interpolationmode none
attr recordingmode histogram
attr title "received packet byte length"
attr unit bytes
bin	-inf	0
bin	4095	0
bin	4096	6712
bin	4097	0
scalar Net10.rte[1].queue[1] txBytes:count 0
attr interpolationmode none
attr recordingmode count
attr title "transmitting packet byte length, count"
attr unit bytes
scalar Net10.rte[1].queue[1] txBytes:sum 0
attr interpolationmode none
attr recordingmode sum
attr title "transmitting packet byte length, sum"
attr unit bytes
statistic Net10.rte[1].queue[1] txBytes:histogram
field count 0
field mean -nan
field stddev -nan
field min -nan
field max -nan
field sum 0
field sqrsum 0
attr interpolationmode none
attr recordingmode histogram
attr title "transmitting packet byte length"
attr unit bytes
bin	-inf	0
bin	0	0
bin	1	0
scalar Net10.rte[1].queue[1] busy:timeavg 0
attr interpolationmode sample-hold
attr recordingmode timeavg
attr title "server busy state, timeavg"
scalar Net10.rte[1].queue[1] qlen:timeavg 0
attr interpolationmode sample-hold
attr recordingmode timeavg
attr title "queue length, timeavg"
scalar Net10.rte[1].queue[1] qlen:max 0
attr interpolationmode sample-hold
attr recordingmode max
attr title "queue length, max"
scalar Net10.rte[1].queue[1] drop:count 0
attr interpolationmode none
attr recordingmode count
attr title "dropped packet byte length, count"
attr unit bytes
scalar Net10.rte[1].queue[1] drop:sum 0
attr interpolationmode none
attr recordingmode sum
attr title "dropped packet byte length, sum"
attr unit bytes
par Net10.rte[1].queue[2] typename "\"node.L2Queue\""
par Net10.rte[1].queue[2] frameCapacity 100
par Net10.rte[1].queue[2] useCutThroughSwitching true
scalar Net10.rte[1].queue[2] rxBytes:count 19923
attr interpolationmode none
attr recordingmode count
attr title "received packet byte length, count"
attr unit bytes
scalar Net10.rte[1].queue[2] rxBytes:sum 81604608
attr interpolationmode none
attr recordingmode sum
attr title "received packet byte length, sum"
attr unit bytes
statistic Net10.rte[1].queue[2] rxBytes:histogram
field count 19923
field mean 4096
field stddev 0
field min 4096
field max 4096
field sum 81604608
field sqrsum 334252474368
attr interpolationmode none
attr recordingmode histogram
attr title "received packet byte length"
attr unit bytes
bin	-inf	0
bin	4095	0
bin	4096	19923
bin	4097	0
scalar Net10.rte[1].queue[2] txBytes:count 0
attr interpolationmode none
attr recordingmode count
attr title "transmitting packet byte length, count"
attr unit bytes
scalar Net10.rte[1].queue[2] txBytes:sum 0
attr interpolationmode none
attr recordingmode sum
attr title "transmitting packet byte length, sum"
attr unit bytes
statistic Net10.rte[1].queue[2] txBytes:histogram
field count 0
field mean -nan
field stddev -nan
field min -nan
field max -nan
field sum 0
field sqrsum 0
attr interpolationmode none
attr recordingmode histogram
attr title "transmitting packet byte length"
attr unit bytes
bin	-inf	0
bin	0	0
bin	1	0
scalar Net10.rte[1].queue[2] busy:timeavg 0
attr interpolationmode sample-hold
attr recordingmode timeavg
attr title "server busy state, timeavg"
scalar Net10.rte[1].queue[2] qlen:timeavg 0
attr interpolationmode sample-hold
attr recordingmode timeavg
attr title "queue length, timeavg"
scalar Net10.rte[1].queue[2] qlen:max 0
attr interpolationmode sample-hold
attr recordingmode max
attr title "queue length, max"
scalar Net10.rte[1].queue[2] drop:count 0
attr interpolationmode none
attr recordingmode count
attr title "dropped packet byte length, count"
attr unit bytes
scalar Net10.rte[1].queue[2] drop:sum 0
attr interpolationmode none
attr recordingmode sum
attr title "dropped packet byte length, sum"
attr unit bytes
par Net10.rte[1] typename "\"node.Node\""
par Net10.rte[1] address 1
par Net10.rte[1] appType "\"App\""
par Net10.rte[2].app typename "\"node.App\""
par Net10.rte[2].app address 2
par Net10.rte[2].app destAddresses "\"1\""
par Net10.rte[2].app sendIaTime exponential(180ms)
attr unit s
par Net10.rte[2].app packetLength 4096byte
attr unit byte
scalar Net10.rte[2].app hopCount:mean -nan
attr interpolationmode none
attr recordingmode mean
attr title "hop count of arrived packets, mean"
scalar Net10.rte[2].app hopCount:max -nan
attr interpolationmode none
attr recordingmode max
attr title "hop count of arrived packets, max"
scalar Net10.rte[2].app endToEndDelay:mean -nan
attr interpolationmode none
attr recordingmode mean
attr title "end-to-end delay of arrived packets, mean"
attr unit s
scalar Net10.rte[2].app endToEndDelay:max -nan
attr interpolationmode none
attr recordingmode max
attr title "end-to-end delay of arrived packets, max"
attr unit s
par Net10.rte[2].routing typename "\"node.Routing\""
statistic Net10.rte[2].routing outputIf:histogram
field count 19923
field mean 4
field stddev 0
field min 4
field max 4
field sum 79692
field sqrsum 318768
attr interpolationmode none
attr recordingmode histogram
attr title "output interface for each routed packet"
bin	-inf	0
bin	3	0
bin	4	19923
bin	5	0
scalar Net10.rte[2].routing drop:count 0
attr interpolationmode none
attr recordingmode count
attr title "dropped packet byte length, count"
attr unit bytes
scalar Net10.rte[2].routing drop:sum 0
attr interpolationmode none
attr recordingmode sum
attr title "dropped packet byte length, sum"
attr unit bytes
par Net10.rte[2].queue[0] typename "\"node.L2Queue\""
par Net10.rte[2].queue[0] frameCapacity 100
par Net10.rte[2].queue[0] useCutThroughSwitching true
scalar Net10.rte[2].queue[0] rxBytes:count 0
attr interpolationmode none
attr recordingmode count
attr title "received packet byte length, count"
attr unit bytes
scalar Net10.rte[2].queue[0] rxBytes:sum 0
attr interpolationmode none
attr recordingmode sum
attr title "received packet byte length, sum"
attr unit bytes
statistic Net10.rte[2].queue[0] rxBytes:histogram
field count 0
field mean -nan
field stddev -nan
field min -nan
field max -nan
field sum 0
field sqrsum 0
attr interpolationmode none
attr recordingmode histogram
attr title "received packet byte length"
attr unit bytes
bin	-inf	0
bin	0	0
bin	1	0
scalar Net10.rte[2].queue[0] txBytes:count 0
attr interpolationmode none
attr recordingmode count
attr title "transmitting packet byte length, count"
attr unit bytes
scalar Net10.rte[2].queue[0] txBytes:sum 0
attr interpolationmode none
attr recordingmode sum
attr title "transmitting packet byte length, sum"
attr unit bytes
statistic Net10.rte[2].queue[0] txBytes:histogram
field count 0
field mean -nan
field stddev -nan
field min -nan
field max -nan
field sum 0
field sqrsum 0
attr interpolationmode none
attr recordingmode histogram
attr title "transmitting packet byte length"
attr unit bytes
bin	-inf	0
bin	0	0
bin	1	0
scalar Net10.rte[2].queue[0] busy:timeavg 0
attr interpolationmode sample-hold
attr recordingmode timeavg
attr title "server busy state, timeavg"
scalar Net10.rte[2].queue[0] qlen:timeavg 0
attr interpolationmode sample-hold
attr recordingmode timeavg
attr title "queue length, timeavg"
scalar Net10.rte[2].queue[0] qlen:max 0
attr interpolationmode sample-hold
attr recordingmode max
attr title "queue length, max"
scalar Net10.rte[2].queue[0] drop:count 0
attr interpolationmode none
attr recordingmode count
attr title "dropped packet byte length, count"
attr unit bytes
scalar Net10.rte[2].queue[0] drop:sum 0
attr interpolationmode none
attr recordingmode sum
attr title "dropped packet byte length, sum"
attr unit bytes
par Net10.rte[2].queue[1] typename "\"node.L2Queue\""
par Net10.rte[2].queue[1] frameCapacity 100
par Net10.rte[2].queue[1] useCutThroughSwitching true
scalar Net10.rte[2].queue[1] rxBytes:count 0
attr interpolationmode none
attr recordingmode count
attr title "received packet byte length, count"
attr unit bytes
scalar Net10.rte[2].queue[1] rxBytes:sum 0
attr interpolationmode none
attr recordingmode sum
attr title "received packet byte length, sum"
attr unit bytes
statistic Net10.rte[2].queue[1] rxBytes:histogram
field count 0
field mean -nan
field stddev -nan
field min -nan
field max -nan
field sum 0
field sqrsum 0
attr interpolationmode none
attr recordingmode histogram
attr title "received packet byte length"
attr unit bytes
bin	-inf	0
bin	0	0
bin	1	0
scalar Net10.rte[2].queue[1] txBytes:count 0
attr interpolationmode none
attr recordingmode count
attr title "transmitting packet byte length, count"
attr unit bytes
scalar Net10.rte[2].queue[1] txBytes:sum 0
attr interpolationmode none
attr recordingmode sum
attr title "transmitting packet byte length, sum"
attr unit bytes
statistic Net10.rte[2].queue[1] txBytes:histogram
field count 0
field mean -nan
field stddev -nan
field min -nan
field max -nan
field sum 0
field sqrsum 0
attr interpolationmode none
attr recordingmode histogram
attr title "transmitting packet byte length"
attr unit bytes
bin	-inf	0
bin	0	0
bin	1	0
scalar Net10.rte[2].queue[1] busy:timeavg 0
attr interpolationmode sample-hold
attr recordingmode timeavg
attr title "server busy state, timeavg"
scalar Net10.rte[2].queue[1] qlen:timeavg 0
attr interpolationmode sample-hold
attr recordingmode timeavg
attr title "queue length, timeavg"
scalar Net10.rte[2].queue[1] qlen:max 0
attr interpolationmode sample-hold
attr recordingmode max
attr title "queue length, max"
scalar Net10.rte[2].queue[1] drop:count 0
attr interpolationmode none
attr recordingmode count
attr title "dropped packet byte length, count"
attr unit bytes
scalar Net10.rte[2].queue[1] drop:sum 0
attr interpolationmode none
attr recordingmode sum
attr title "dropped packet byte length, sum"
attr unit bytes
par Net10.rte[2].queue[2] typename "\"node.L2Queue\""
par Net10.rte[2].queue[2] frameCapacity 100
par Net10.rte[2].queue[2] useCutThroughSwitching true
scalar Net10.rte[2].queue[2] rxBytes:count 0
attr interpolationmode none
attr recordingmode count
attr title "received packet byte length, count"
attr unit bytes
scalar Net10.rte[2].queue[2] rxBytes:sum 0
attr interpolationmode none
attr recordingmode sum
attr title "received packet byte length, sum"
attr unit bytes
statistic Net10.rte[2].queue[2] rxBytes:histogram
field count 0
field mean -nan
field stddev -nan
field min -nan
field max -nan
field sum 0
field sqrsum 0
attr interpolationmode none
attr recordingmode histogram
attr title "received packet byte length"
attr unit bytes
bin	-inf	0
bin	0	0
bin	1	0
scalar Net10.rte[2].queue[2] txBytes:count 0
attr interpolationmode none
attr recordingmode count
attr title "transmitting packet byte length, count"
attr unit bytes
scalar Net10.rte[2].queue[2] txBytes:sum 0
attr interpolationmode none
attr recordingmode sum
attr title "transmitting packet byte length, sum"
attr unit bytes
statistic Net10.rte[2].queue[2] txBytes:histogram
field count 0
field mean -nan
field stddev -nan
field min -nan
field max -nan
field sum 0
field sqrsum 0
attr interpolationmode none
attr recordingmode histogram
attr title "transmitting packet byte length"
attr unit bytes
bin	-inf	0
bin	0	0
bin	1	0
scalar Net10.rte[2].queue[2] busy:timeavg 0
attr interpolationmode sample-hold
attr recordingmode timeavg
attr title "server busy state, timeavg"
scalar Net10.rte[2].queue[2] qlen:timeavg 0
attr interpolationmode sample-hold
attr recordingmode timeavg
attr title "queue length, timeavg"
scalar Net10.rte[2].queue[2] qlen:max 0
attr interpolationmode sample-hold
attr recordingmode max
attr title "queue length, max"
scalar Net10.rte[2].queue[2] drop:count 0
attr interpolationmode none
attr recordingmode count
attr title "dropped packet byte length, count"
attr unit bytes
scalar Net10.rte[2].queue[2] drop:sum 0
attr interpolationmode none
attr recordingmode sum
attr title "dropped packet byte length, sum"
attr unit bytes
par Net10.rte[2].queue[3] typename "\"node.L2Queue\""
par Net10.rte[2].queue[3] frameCapacity 100
par Net10.rte[2].queue[3] useCutThroughSwitching true
scalar Net10.rte[2].queue[3] rxBytes:count 13291
attr interpolationmode none
attr recordingmode count
attr title "received packet byte length, count"
attr unit bytes
scalar Net10.rte[2].queue[3] rxBytes:sum 54439936
attr interpolationmode none
attr recordingmode sum
attr title "received packet byte length, sum"
attr unit bytes
statistic Net10.rte[2].queue[3] rxBytes:histogram
field count 13291
field mean 4096
field stddev 0
field min 4096
field max 4096
field sum 54439936
field sqrsum 222985977856
attr interpolationmode none
attr recordingmode histogram
attr title "received packet byte length"
attr unit bytes
bin	-inf	0
bin	4095	0
bin	4096	13291
bin	4097	0
scalar Net10.rte[2].queue[3] txBytes:count 0
attr interpolationmode none
attr recordingmode count
attr title "transmitting packet byte length, count"
attr unit bytes
scalar Net10.rte[2].queue[3] txBytes:sum 0
attr interpolationmode none
attr recordingmode sum
attr title "transmitting packet byte length, sum"
attr unit bytes
statistic Net10.rte[2].queue[3] txBytes:histogram
field count 0
field mean -nan
field stddev -nan
field min -nan
field max -nan
field sum 0
field sqrsum 0
attr interpolationmode none
attr recordingmode histogram
attr title "transmitting packet byte length"
attr unit bytes
bin	-inf	0
bin	0	0
bin	1	0
scalar Net10.rte[2].queue[3] busy:timeavg 0
attr interpolationmode sample-hold
attr recordingmode timeavg
attr title "server busy state, timeavg"
scalar Net10.rte[2].queue[3] qlen:timeavg 0
attr interpolationmode sample-hold
attr recordingmode timeavg
attr title "queue length, timeavg"
scalar Net10.rte[2].queue[3] qlen:max 0
attr interpolationmode sample-hold
attr recordingmode max
attr title "queue length, max"
scalar Net10.rte[2].queue[3] drop:count 0
attr interpolationmode none
attr recordingmode count
attr title "dropped packet byte length, count"
attr unit bytes
scalar Net10.rte[2].queue[3] drop:sum 0
attr interpolationmode none
attr recordingmode sum
attr title "dropped packet byte length, sum"
attr unit bytes
par Net10.rte[2].queue[4] typename "\"node.L2Queue\""
par Net10.rte[2].queue[4] frameCapacity 100
par Net10.rte[2].queue[4] useCutThroughSwitching true
scalar Net10.rte[2].queue[4] rxBytes:count 0
attr interpolationmode none
attr recordingmode count
attr title "received packet byte length, count"
attr unit bytes
scalar Net10.rte[2].queue[4] rxBytes:sum 0
attr interpolationmode none
attr recordingmode sum
attr title "received packet byte length, sum"
attr unit bytes
statistic Net10.rte[2].queue[4] rxBytes:histogram
field count 0
field mean -nan
field stddev -nan
field min -nan
field max -nan
field sum 0
field sqrsum 0
attr interpolationmode none
attr recordingmode histogram
attr title "received packet byte length"
attr unit bytes
bin	-inf	0
bin	0	0
bin	1	0
scalar Net10.rte[2].queue[4] txBytes:count 19923
attr interpolationmode none
attr recordingmode count
attr title "transmitting packet byte length, count"
attr unit bytes
scalar Net10.rte[2].queue[4] txBytes:sum 81604608
attr interpolationmode none
attr recordingmode sum
attr title "transmitting packet byte length, sum"
attr unit bytes
statistic Net10.rte[2].queue[4] txBytes:histogram
field count 19923
field mean 4096
field stddev 0
field min 4096
field max 4096
field sum 81604608
field sqrsum 334252474368
attr interpolationmode none
attr recordingmode histogram
attr title "transmitting packet byte length"
attr unit bytes
bin	-inf	0
bin	4095	0
bin	4096	19923
bin	4097	0
scalar Net10.rte[2].queue[4] busy:timeavg 0.54401368144296
attr interpolationmode sample-hold
attr recordingmode timeavg
attr title "server busy state, timeavg"
scalar Net10.rte[2].queue[4] qlen:timeavg 0.2148775603903
attr interpolationmode sample-hold
attr recordingmode timeavg
attr title "queue length, timeavg"
scalar Net10.rte[2].queue[4] qlen:max 7
attr interpolationmode sample-hold
attr recordingmode max
attr title "queue length, max"
scalar Net10.rte[2].queue[4] drop:count 0
attr interpolationmode none
attr recordingmode count
attr title "dropped packet byte length, count"
attr unit bytes
scalar Net10.rte[2].queue[4] drop:sum 0
attr interpolationmode none
attr recordingmode sum
attr title "dropped packet byte length, sum"
attr unit bytes
par Net10.rte[2] typename "\"node.Node\""
par Net10.rte[2] address 2
par Net10.rte[2] appType "\"App\""
par Net10.rte[3].app typename "\"node.App\""
par Net10.rte[3].app address 3
par Net10.rte[3].app destAddresses "\"1\""
par Net10.rte[3].app sendIaTime exponential(180ms)
attr unit s
par Net10.rte[3].app packetLength 4096byte
attr unit byte
scalar Net10.rte[3].app hopCount:mean -nan
attr interpolationmode none
attr recordingmode mean
attr title "hop count of arrived packets, mean"
scalar Net10.rte[3].app hopCount:max -nan
attr interpolationmode none
attr recordingmode max
attr title "hop count of arrived packets, max"
scalar Net10.rte[3].app endToEndDelay:mean -nan
attr interpolationmode none
attr recordingmode mean
attr title "end-to-end delay of arrived packets, mean"
attr unit s
scalar Net10.rte[3].app endToEndDelay:max -nan
attr interpolationmode none
attr recordingmode max
attr title "end-to-end delay of arrived packets, max"
attr unit s
par Net10.rte[3].routing typename "\"node.Routing\""
statistic Net10.rte[3].routing outputIf:histogram
field count 6712
field mean 1
field stddev 0
field min 1
field max 1
field sum 6712
field sqrsum 6712
attr interpolationmode none
attr recordingmode histogram
attr title "output interface for each routed packet"
bin	-inf	0
bin	0	0
bin	1	6712
bin	2	0
scalar Net10.rte[3].routing drop:count 0
attr interpolationmode none
attr recordingmode count
attr title "dropped packet byte length, count"
attr unit bytes
scalar Net10.rte[3].routing drop:sum 0
attr interpolationmode none
attr recordingmode sum
attr title "dropped packet byte length, sum"
attr unit bytes
par Net10.rte[3].queue[0] typename "\"node.L2Queue\""
par Net10.rte[3].queue[0] frameCapacity 100
par Net10.rte[3].queue[0] useCutThroughSwitching true
scalar Net10.rte[3].queue[0] rxBytes:count 0
attr interpolationmode none
attr recordingmode count
attr title "received packet byte length, count"
attr unit bytes
scalar Net10.rte[3].queue[0] rxBytes:sum 0
attr interpolationmode none
attr recordingmode sum
attr title "received packet byte length, sum"
attr unit bytes
statistic Net10.rte[3].queue[0] rxBytes:histogram
field count 0
field mean -nan
field stddev -nan
field min -nan
field max -nan
field sum 0
field sqrsum 0
attr interpolationmode none
attr recordingmode histogram
attr title "received packet byte length"
attr unit bytes
bin	-inf	0
bin	0	0
bin	1	0
scalar Net10.rte[3].queue[0] txBytes:count 0
attr interpolationmode none
attr recordingmode count
attr title "transmitting packet byte length, count"
attr unit bytes
scalar Net10.rte[3].queue[0] txBytes:sum 0
attr interpolationmode none
attr recordingmode sum
attr title "transmitting packet byte length, sum"
attr unit bytes
statistic Net10.rte[3].queue[0] txBytes:histogram
field count 0
field mean -nan
field stddev -nan
field min -nan
field max -nan
field sum 0
field sqrsum 0
attr interpolationmode none
attr recordingmode histogram
attr title "transmitting packet byte length"
attr unit bytes
bin	-inf	0
bin	0	0
bin	1	0
scalar Net10.rte[3].queue[0] busy:timeavg 0
attr interpolationmode sample-hold
attr recordingmode timeavg
attr title "server busy state, timeavg"
scalar Net10.rte[3].queue[0] qlen:timeavg 0
attr interpolationmode sample-hold
attr recordingmode timeavg
attr title "queue length, timeavg"
scalar Net10.rte[3].queue[0] qlen:max 0
attr interpolationmode sample-hold
attr recordingmode max
attr title "queue length, max"
scalar Net10.rte[3].queue[0] drop:count 0
attr interpolationmode none
attr recordingmode count
attr title "dropped packet byte length, count"
attr unit bytes
scalar Net10.rte[3].queue[0] drop:sum 0
attr interpolationmode none
attr recordingmode sum
attr title "dropped packet byte length, sum"
attr unit bytes
par Net10.rte[3].queue[1] typename "\"node.L2Queue\""
par Net10.rte[3].queue[1] frameCapacity 100
par Net10.rte[3].queue[1] useCutThroughSwitching true
scalar Net10.rte[3].queue[1] rxBytes:count 0
attr interpolationmode none
attr recordingmode count
attr title "received packet byte length, count"
attr unit bytes
scalar Net10.rte[3].queue[1] rxBytes:sum 0
attr interpolationmode none
attr recordingmode sum
attr title "received packet byte length, sum"
attr unit bytes
statistic Net10.rte[3].queue[1] rxBytes:histogram
field count 0
field mean -nan
field stddev -nan
field min -nan
field max -nan
field sum 0
field sqrsum 0
attr interpolationmode none
attr recordingmode histogram
attr title "received packet byte length"
attr unit bytes
bin	-inf	0
bin	0	0
bin	1	0
scalar Net10.rte[3].queue[1] txBytes:count 6712
attr interpolationmode none
attr recordingmode count
attr title "transmitting packet byte length, count"
attr unit bytes
scalar Net10.rte[3].queue[1] txBytes:sum 27492352
attr interpolationmode none
attr recordingmode sum
attr title "transmitting packet byte length, sum"
attr unit bytes
statistic Net10.rte[3].queue[1] txBytes:histogram
field count 6712
field mean 4096
field stddev 0
field min 4096
field max 4096
field sum 27492352
field sqrsum 112608673792
attr interpolationmode none
attr recordingmode histogram
attr title "transmitting packet byte length"
attr unit bytes
bin	-inf	0
bin	4095	0
bin	4096	6712
bin	4097	0
scalar Net10.rte[3].queue[1] busy:timeavg 0.18328126869566
attr interpolationmode sample-hold
attr recordingmode timeavg
attr title "server busy state, timeavg"
scalar Net10.rte[3].queue[1] qlen:timeavg 0.021665916563113
attr interpolationmode sample-hold
attr recordingmode timeavg
attr title "queue length, timeavg"
scalar Net10.rte[3].queue[1] qlen:max 3
attr interpolationmode sample-hold
attr recordingmode max
attr title "queue length, max"
scalar Net10.rte[3].queue[1] drop:count 0
attr interpolationmode none
attr recordingmode count
attr title "dropped packet byte length, count"
attr unit bytes
scalar Net10.rte[3].queue[1] drop:sum 0
attr interpolationmode none
attr recordingmode sum
attr title "dropped packet byte length, sum"
attr unit bytes
par Net10.rte[3].queue[2] typename "\"node.L2Queue\""
par Net10.rte[3].queue[2] frameCapacity 100
par Net10.rte[3].queue[2] useCutThroughSwitching true
scalar Net10.rte[3].queue[2] rxBytes:count 0
attr interpolationmode none
attr recordingmode count
attr title "received packet byte length, count"
attr unit bytes
scalar Net10.rte[3].queue[2] rxBytes:sum 0
attr interpolationmode none
attr recordingmode sum
attr title "received packet byte length, sum"
attr unit bytes
statistic Net10.rte[3].queue[2] rxBytes:histogram
field count 0
field mean -nan
field stddev -nan
field min -nan
field max -nan
field sum 0
field sqrsum 0
attr interpolationmode none
attr recordingmode histogram
attr title "received packet byte length"
attr unit bytes
bin	-inf	0
bin	0	0
bin	1	0
scalar Net10.rte[3].queue[2] txBytes:count 0
attr interpolationmode none
attr recordingmode count
attr title "transmitting packet byte length, count"
attr unit bytes
scalar Net10.rte[3].queue[2] txBytes:sum 0
attr interpolationmode none
attr recordingmode sum
attr title "transmitting packet byte length, sum"
attr unit bytes
statistic Net10.rte[3].queue[2] txBytes:histogram
field count 0
field mean -nan
field stddev -nan
field min -nan
field max -nan
field sum 0
field sqrsum 0
attr interpolationmode none
attr recordingmode histogram
attr title "transmitting packet byte length"
attr unit bytes
bin	-inf	0
bin	0	0
bin	1	0
scalar Net10.rte[3].queue[2] busy:timeavg 0
attr interpolationmode sample-hold
attr recordingmode timeavg
attr title "server busy state, timeavg"
scalar Net10.rte[3].queue[2] qlen:timeavg 0
attr interpolationmode sample-hold
attr recordingmode timeavg
attr title "queue length, timeavg"
scalar Net10.rte[3].queue[2] qlen:max 0
attr interpolationmode sample-hold
attr recordingmode max
attr title "queue length, max"
scalar Net10.rte[3].queue[2] drop:count 0
attr interpolationmode none
attr recordingmode count
attr title "dropped packet byte length, count"
attr unit bytes
scalar Net10.rte[3].queue[2] drop:sum 0
attr interpolationmode none
attr recordingmode sum
attr title "dropped packet byte length, sum"
attr unit bytes
par Net10.rte[3] typename "\"node.Node\""
par Net10.rte[3] address 3
par Net10.rte[3] appType "\"App\""
par Net10.rte[4].app typename "\"node.App\""
par Net10.rte[4].app address 4
par Net10.rte[4].app destAddresses "\"1\""
par Net10.rte[4].app sendIaTime exponential(180ms)
attr unit s
par Net10.rte[4].app packetLength 4096byte
attr unit byte
scalar Net10.rte[4].app hopCount:mean -nan
attr interpolationmode none
attr recordingmode mean
attr title "hop count of arrived packets, mean"
scalar Net10.rte[4].app hopCount:max -nan
attr interpolationmode none
attr recordingmode max
attr title "hop count of arrived packets, max"
scalar Net10.rte[4].app endToEndDelay:mean -nan
attr interpolationmode none
attr recordingmode mean
attr title "end-to-end delay of arrived packets, mean"
attr unit s
scalar Net10.rte[4].app endToEndDelay:max -nan
attr interpolationmode none
attr recordingmode max
attr title "end-to-end delay of arrived packets, max"
attr unit s
par Net10.rte[4].routing typename "\"node.Routing\""
statistic Net10.rte[4].routing outputIf:histogram
field count 13292
field mean 2
field stddev 0
field min 2
field max 2
field sum 26584
field sqrsum 53168
attr interpolationmode none
attr recordingmode histogram
attr title "output interface for each routed packet"
bin	-inf	0
bin	1	0
bin	2	13292
bin	3	0
scalar Net10.rte[4].routing drop:count 0
attr interpolationmode none
attr recordingmode count
attr title "dropped packet byte length, count"
attr unit bytes
scalar Net10.rte[4].routing drop:sum 0
attr interpolationmode none
attr recordingmode sum
attr title "dropped packet byte length, sum"
attr unit bytes
par Net10.rte[4].queue[0] typename "\"node.L2Queue\""
par Net10.rte[4].queue[0] frameCapacity 100
par Net10.rte[4].queue[0] useCutThroughSwitching true
scalar Net10.rte[4].queue[0] rxBytes:count 6613
attr interpolationmode none
attr recordingmode count
attr title "received packet byte length, count"
attr unit bytes
scalar Net10.rte[4].queue[0] rxBytes:sum 27086848
attr interpolationmode none
attr recordingmode sum
attr title "received packet byte length, sum"
attr unit bytes
statistic Net10.rte[4].queue[0] rxBytes:histogram
field count 6613
field mean 4096
field stddev 0
field min 4096
field max 4096
field sum 27086848
field sqrsum 110947729408
attr interpolationmode none
attr recordingmode histogram
attr title "received packet byte length"
attr unit bytes
bin	-inf	0
bin	4095	0
bin	4096	6613
bin	4097	0
scalar Net10.rte[4].queue[0] txBytes:count 0
attr interpolationmode none
attr recordingmode count
attr title "transmitting packet byte length, count"
attr unit bytes
scalar Net10.rte[4].queue[0] txBytes:sum 0
attr interpolationmode none
attr recordingmode sum
attr title "transmitting packet byte length, sum"
attr unit bytes
statistic Net10.rte[4].queue[0] txBytes:histogram
field count 0
field mean -nan
field stddev -nan
field min -nan
field max -nan
field sum 0
field sqrsum 0
attr interpolationmode none
attr recordingmode histogram
attr title "transmitting packet byte length"
attr unit bytes
bin	-inf	0
bin	0	0
bin	1	0
scalar Net10.rte[4].queue[0] busy:timeavg 0
attr interpolationmode sample-hold
attr recordingmode timeavg
attr title "server busy state, timeavg"
scalar Net10.rte[4].queue[0] qlen:timeavg 0
attr interpolationmode sample-hold
attr recordingmode timeavg
attr title "queue length, timeavg"
scalar Net10.rte[4].queue[0] qlen:max 0
attr interpolationmode sample-hold
attr recordingmode max
attr title "queue length, max"
scalar Net10.rte[4].queue[0] drop:count 0
attr interpolationmode none
attr recordingmode count
attr title "dropped packet byte length, count"
attr unit bytes
scalar Net10.rte[4].queue[0] drop:sum 0
attr interpolationmode none
attr recordingmode sum
attr title "dropped packet byte length, sum"
attr unit bytes
par Net10.rte[4].queue[1] typename "\"node.L2Queue\""
par Net10.rte[4].queue[1] frameCapacity 100
par Net10.rte[4].queue[1] useCutThroughSwitching true
scalar Net10.rte[4].queue[1] rxBytes:count 0
attr interpolationmode none
attr recordingmode count
attr title "received packet byte length, count"
attr unit bytes
scalar Net10.rte[4].queue[1] rxBytes:sum 0
attr interpolationmode none
attr recordingmode sum
attr title "received packet byte length, sum"
attr unit bytes
statistic Net10.rte[4].queue[1] rxBytes:histogram
field count 0
field mean -nan
field stddev -nan
field min -nan
field max -nan
field sum 0
field sqrsum 0
attr interpolationmode none
attr recordingmode histogram
attr title "received packet byte length"
attr unit bytes
bin	-inf	0
bin	0	0
bin	1	0
scalar Net10.rte[4].queue[1] txBytes:count 0
attr interpolationmode none
attr recordingmode count
attr title "transmitting packet byte length, count"
attr unit bytes
scalar Net10.rte[4].queue[1] txBytes:sum 0
attr interpolationmode none
attr recordingmode sum
attr title "transmitting packet byte length, sum"
attr unit bytes
statistic Net10.rte[4].queue[1] txBytes:histogram
field count 0
field mean -nan
field stddev -nan
field min -nan
field max -nan
field sum 0
field sqrsum 0
attr interpolationmode none
attr recordingmode histogram
attr title "transmitting packet byte length"
attr unit bytes
bin	-inf	0
bin	0	0
bin	1	0
scalar Net10.rte[4].queue[1] busy:timeavg 0
attr interpolationmode sample-hold
attr recordingmode timeavg
attr title "server busy state, timeavg"
scalar Net10.rte[4].queue[1] qlen:timeavg 0
attr interpolationmode sample-hold
attr recordingmode timeavg
attr title "queue length, timeavg"
scalar Net10.rte[4].queue[1] qlen:max 0
attr interpolationmode sample-hold
attr recordingmode max
attr title "queue length, max"
scalar Net10.rte[4].queue[1] drop:count 0
attr interpolationmode none
attr recordingmode count
attr title "dropped packet byte length, count"
attr unit bytes
scalar Net10.rte[4].queue[1] drop:sum 0
attr interpolationmode none
attr recordingmode sum
attr title "dropped packet byte length, sum"
attr unit bytes
par Net10.rte[4].queue[2] typename "\"node.L2Queue\""
par Net10.rte[4].queue[2] frameCapacity 100
par Net10.rte[4].queue[2] useCutThroughSwitching true
scalar Net10.rte[4].queue[2] rxBytes:count 0
attr interpolationmode none
attr recordingmode count
attr title "received packet byte length, count"
attr unit bytes
scalar Net10.rte[4].queue[2] rxBytes:sum 0
attr interpolationmode none
attr recordingmode sum
attr title "received packet byte length, sum"
attr unit bytes
statistic Net10.rte[4].queue[2] rxBytes:histogram
field count 0
field mean -nan
field stddev -nan
field min -nan
field max -nan
field sum 0
field sqrsum 0
attr interpolationmode none
attr recordingmode histogram
attr title "received packet byte length"
attr unit bytes
bin	-inf	0
bin	0	0
bin	1	0
scalar Net10.rte[4].queue[2] txBytes:count 13291
attr interpolationmode none
attr recordingmode count
attr title "transmitting packet byte length, count"
attr unit bytes
scalar Net10.rte[4].queue[2] txBytes:sum 54439936
attr interpolationmode none
attr recordingmode sum
attr title "transmitting packet byte length, sum"
attr unit bytes
statistic Net10.rte[4].queue[2] txBytes:histogram
field count 13291
field mean 4096
field stddev 0
field min 4096
field max 4096
field sum 54439936
field sqrsum 222985977856
attr interpolationmode none
attr recordingmode histogram
attr title "transmitting packet byte length"
attr unit bytes
bin	-inf	0
bin	4095	0
bin	4096	13291
bin	4097	0
scalar Net10.rte[4].queue[2] busy:timeavg 0.36291606047054
attr interpolationmode sample-hold
attr recordingmode timeavg
attr title "server busy state, timeavg"
scalar Net10.rte[4].queue[2] qlen:timeavg 0.083876420262561
attr interpolationmode sample-hold
attr recordingmode timeavg
attr title "queue length, timeavg"
scalar Net10.rte[4].queue[2] qlen:max 5
attr interpolationmode sample-hold
attr recordingmode max
attr title "queue length, max"
scalar Net10.rte[4].queue[2] drop:count 0
attr interpolationmode none
attr recordingmode count
attr title "dropped packet byte length, count"
attr unit bytes
scalar Net10.rte[4].queue[2] drop:sum 0
attr interpolationmode none
attr recordingmode sum
attr title "dropped packet byte length, sum"
attr unit bytes
par Net10.rte[4].queue[3] typename "\"node.L2Queue\""
par Net10.rte[4].queue[3] frameCapacity 100
par Net10.rte[4].queue[3] useCutThroughSwitching true
scalar Net10.rte[4].queue[3] rxBytes:count 0
attr interpolationmode none
attr recordingmode count
attr title "received packet byte length, count"
attr unit bytes
scalar Net10.rte[4].queue[3] rxBytes:sum 0
attr interpolationmode none
attr recordingmode sum
attr title "received packet byte length, sum"
attr unit bytes
statistic Net10.rte[4].queue[3] rxBytes:histogram
field count 0
field mean -nan
field stddev -nan
field min -nan
field max -nan
field sum 0
field sqrsum 0
attr interpolationmode none
attr recordingmode histogram
attr title "received packet byte length"
attr unit bytes
bin	-inf	0
bin	0	0
bin	1	0
scalar Net10.rte[4].queue[3] txBytes:count 0
attr interpolationmode none
attr recordingmode count
attr title "transmitting packet byte length, count"
attr unit bytes
scalar Net10.rte[4].queue[3] txBytes:sum 0
attr interpolationmode none
attr recordingmode sum
attr title "transmitting packet byte length, sum"
attr unit bytes
statistic Net10.rte[4].queue[3] txBytes:histogram
field count 0
field mean -nan
field stddev -nan
field min -nan
field max -nan
field sum 0
field sqrsum 0
attr interpolationmode none
attr recordingmode histogram
attr title "transmitting packet byte length"
attr unit bytes
bin	-inf	0
bin	0	0
bin	1	0
scalar Net10.rte[4].queue[3] busy:timeavg 0
attr interpolationmode sample-hold
attr recordingmode timeavg
attr title "server busy state, timeavg"
scalar Net10.rte[4].queue[3] qlen:timeavg 0
attr interpolationmode sample-hold
attr recordingmode timeavg
attr title "queue length, timeavg"
scalar Net10.rte[4].queue[3] qlen:max 0
attr interpolationmode sample-hold
attr recordingmode max
attr title "queue length, max"
scalar Net10.rte[4].queue[3] drop:count 0
attr interpolationmode none
attr recordingmode count
attr title "dropped packet byte length, count"
attr unit bytes
scalar Net10.rte[4].queue[3] drop:sum 0
attr interpolationmode none
attr recordingmode sum
attr title "dropped packet byte length, sum"
attr unit bytes
par Net10.rte[4] typename "\"node.Node\""
par Net10.rte[4] address 4
par Net10.rte[4] appType "\"App\""
par Net10.rte[5].app typename "\"node.App\""
par Net10.rte[5].app address 5
par Net10.rte[5].app destAddresses "\"1\""
par Net10.rte[5].app sendIaTime exponential(180ms)
attr unit s
par Net10.rte[5].app packetLength 4096byte
attr unit byte
scalar Net10.rte[5].app hopCount:mean -nan
attr interpolationmode none
attr recordingmode mean
attr title "hop count of arrived packets, mean"
scalar Net10.rte[5].app hopCount:max -nan
attr interpolationmode none
attr recordingmode max
attr title "hop count of arrived packets, max"
scalar Net10.rte[5].app endToEndDelay:mean -nan
attr interpolationmode none
attr recordingmode mean
attr title "end-to-end delay of arrived packets, mean"
attr unit s
scalar Net10.rte[5].app endToEndDelay:max -nan
attr interpolationmode none
attr recordingmode max
attr title "end-to-end delay of arrived packets, max"
attr unit s
par Net10.rte[5].routing typename "\"node.Routing\""
statistic Net10.rte[5].routing outputIf:histogram
field count 26813
field mean 3
field stddev 0
field min 3
field max 3
field sum 80439
field sqrsum 241317
attr interpolationmode none
attr recordingmode histogram
attr title "output interface for each routed packet"
bin	-inf	0
bin	2	0
bin	3	26813
bin	4	0
scalar Net10.rte[5].routing drop:count 0
attr interpolationmode none
attr recordingmode count
attr title "dropped packet byte length, count"
attr unit bytes
scalar Net10.rte[5].routing drop:sum 0
attr interpolationmode none
attr recordingmode sum
attr title "dropped packet byte length, sum"
attr unit bytes
par Net10.rte[5].queue[0] typename "\"node.L2Queue\""
par Net10.rte[5].queue[0] frameCapacity 100
par Net10.rte[5].queue[0] useCutThroughSwitching true
scalar Net10.rte[5].queue[0] rxBytes:count 0
attr interpolationmode none
attr recordingmode count
attr title "received packet byte length, count"
attr unit bytes
scalar Net10.rte[5].queue[0] rxBytes:sum 0
attr interpolationmode none
attr recordingmode sum
attr title "received packet byte length, sum"
attr unit bytes
statistic Net10.rte[5].queue[0] rxBytes:histogram
field count 0
field mean -nan
field stddev -nan
field min -nan
field max -nan
field sum 0
field sqrsum 0
attr interpolationmode none
attr recordingmode histogram
attr title "received packet byte length"
attr unit bytes
bin	-inf	0
bin	0	0
bin	1	0
scalar Net10.rte[5].queue[0] txBytes:count 0
attr interpolationmode none
attr recordingmode count
attr title "transmitting packet byte length, count"
attr unit bytes
scalar Net10.rte[5].queue[0] txBytes:sum 0
attr interpolationmode none
attr recordingmode sum
attr title "transmitting packet byte length, sum"
attr unit bytes
statistic Net10.rte[5].queue[0] txBytes:histogram
field count 0
field mean -nan
field stddev -nan
field min -nan
field max -nan
field sum 0
field sqrsum 0
attr interpolationmode none
attr recordingmode histogram
attr title "transmitting packet byte length"
attr unit bytes
bin	-inf	0
bin	0	0
bin	1	0
scalar Net10.rte[5].queue[0] busy:timeavg 0
attr interpolationmode sample-hold
attr recordingmode timeavg
attr title "server busy state, timeavg"
scalar Net10.rte[5].queue[0] qlen:timeavg 0
attr interpolationmode sample-hold
attr recordingmode timeavg
attr title "queue length, timeavg"
scalar Net10.rte[5].queue[0] qlen:max 0
attr interpolationmode sample-hold
attr recordingmode max
attr title "queue length, max"
scalar Net10.rte[5].queue[0] drop:count 0
attr interpolationmode none
attr recordingmode count
attr title "dropped packet byte length, count"
attr unit bytes
scalar Net10.rte[5].queue[0] drop:sum 0
attr interpolationmode none
attr recordingmode sum
attr title "dropped packet byte length, sum"
attr unit bytes
par Net10.rte[5].queue[1] typename "\"node.L2Queue\""
par Net10.rte[5].queue[1] frameCapacity 100
par Net10.rte[5].queue[1] useCutThroughSwitching true
scalar Net10.rte[5].queue[1] rxBytes:count 6800
attr interpolationmode none
attr recordingmode count
attr title "received packet byte length, count"
attr unit bytes
scalar Net10.rte[5].queue[1] rxBytes:sum 27852800
attr interpolationmode none
attr recordingmode sum
attr title "received packet byte length, sum"
attr unit bytes
statistic Net10.rte[5].queue[1] rxBytes:histogram
field count 6800
field mean 4096
field stddev 0
field min 4096
field max 4096
field sum 27852800
field sqrsum 114085068800
attr interpolationmode none
attr recordingmode histogram
attr title "received packet byte length"
attr unit bytes
bin	-inf	0
bin	4095	0
bin	4096	6800
bin	4097	0
scalar Net10.rte[5].queue[1] txBytes:count 0
attr interpolationmode none
attr recordingmode count
attr title "transmitting packet byte length, count"
attr unit bytes
scalar Net10.rte[5].queue[1] txBytes:sum 0
attr interpolationmode none
attr recordingmode sum
attr title "transmitting packet byte length, sum"
attr unit bytes
statistic Net10.rte[5].queue[1] txBytes:histogram
field count 0
field mean -nan
field stddev -nan
field min -nan
field max -nan
field sum 0
field sqrsum 0
attr interpolationmode none
attr recordingmode histogram
attr title "transmitting packet byte length"
attr unit bytes
bin	-inf	0
bin	0	0
bin	1	0
scalar Net10.rte[5].queue[1] busy:timeavg 0
attr interpolationmode sample-hold
attr recordingmode timeavg
attr title "server busy state, timeavg"
scalar Net10.rte[5].queue[1] qlen:timeavg 0
attr interpolationmode sample-hold
attr recordingmode timeavg
attr title "queue length, timeavg"
scalar Net10.rte[5].queue[1] qlen:max 0
attr interpolationmode sample-hold
attr recordingmode max
attr title "queue length, max"
scalar Net10.rte[5].queue[1] drop:count 0
attr interpolationmode none
attr recordingmode count
attr title "dropped packet byte length, count"
attr unit bytes
scalar Net10.rte[5].queue[1] drop:sum 0
attr interpolationmode none
attr recordingmode sum
attr title "dropped packet byte length, sum"
attr unit bytes
par Net10.rte[5].queue[2] typename "\"node.L2Queue\""
par Net10.rte[5].queue[2] frameCapacity 100
par Net10.rte[5].queue[2] useCutThroughSwitching true
scalar Net10.rte[5].queue[2] rxBytes:count 13261
attr interpolationmode none
attr recordingmode count
attr title "received packet byte length, count"
attr unit bytes
scalar Net10.rte[5].queue[2] rxBytes:sum 54317056
attr interpolationmode none
attr recordingmode sum
attr title "received packet byte length, sum"
attr unit bytes
statistic Net10.rte[5].queue[2] rxBytes:histogram
field count 13261
field mean 4096
field stddev 0
field min 4096
field max 4096
field sum 54317056
field sqrsum 222482661376
attr interpolationmode none
attr recordingmode histogram
attr title "received packet byte length"
attr unit bytes
bin	-inf	0
bin	4095	0
bin	4096	13261
bin	4097	0
scalar Net10.rte[5].queue[2] txBytes:count 0
attr interpolationmode none
attr recordingmode count
attr title "transmitting packet byte length, count"
attr unit bytes
scalar Net10.rte[5].queue[2] txBytes:sum 0
attr interpolationmode none
attr recordingmode sum
attr title "transmitting packet byte length, sum"
attr unit bytes
statistic Net10.rte[5].queue[2] txBytes:histogram
field count 0
field mean -nan
field stddev -nan
field min -nan
field max -nan
field sum 0
field sqrsum 0
attr interpolationmode none
attr recordingmode histogram
attr title "transmitting packet byte length"
attr unit bytes
bin	-inf	0
bin	0	0
bin	1	0
scalar Net10.rte[5].queue[2] busy:timeavg 0
attr interpolationmode sample-hold
attr recordingmode timeavg
attr title "server busy state, timeavg"
scalar Net10.rte[5].queue[2] qlen:timeavg 0
attr interpolationmode sample-hold
attr recordingmode timeavg
attr title "queue length, timeavg"
scalar Net10.rte[5].queue[2] qlen:max 0
attr interpolationmode sample-hold
attr recordingmode max
attr title "queue length, max"
scalar Net10.rte[5].queue[2] drop:count 0
attr interpolationmode none
attr recordingmode count
attr title "dropped packet byte length, count"
attr unit bytes
scalar Net10.rte[5].queue[2] drop:sum 0
attr interpolationmode none
attr recordingmode sum
attr title "dropped packet byte length, sum"
attr unit bytes
par Net10.rte[5].queue[3] typename "\"node.L2Queue\""
par Net10.rte[5].queue[3] frameCapacity 100
par Net10.rte[5].queue[3] useCutThroughSwitching true
scalar Net10.rte[5].queue[3] rxBytes:count 0
attr interpolationmode none
attr recordingmode count
attr title "received packet byte length, count"
attr unit bytes
scalar Net10.rte[5].queue[3] rxBytes:sum 0
attr interpolationmode none
attr recordingmode sum
attr title "received packet byte length, sum"
attr unit bytes
statistic Net10.rte[5].queue[3] rxBytes:histogram
field count 0
field mean -nan
field stddev -nan
field min -nan
field max -nan
field sum 0
field sqrsum 0
attr interpolationmode none
attr recordingmode histogram
attr title "received packet byte length"
attr unit bytes
bin	-inf	0
bin	0	0
bin	1	0
scalar Net10.rte[5].queue[3] txBytes:count 26813
attr interpolationmode none
attr recordingmode count
attr title "transmitting packet byte length, count"
attr unit bytes
scalar Net10.rte[5].queue[3] txBytes:sum 109826048
attr interpolationmode none
attr recordingmode sum
attr title "transmitting packet byte length, sum"
attr unit bytes
statistic Net10.rte[5].queue[3] txBytes:histogram
field count 26813
field mean 4096
field stddev 0
field min 4096
field max 4096
field sum 109826048
field sqrsum 449847492608
attr interpolationmode none
attr recordingmode histogram
attr title "transmitting packet byte length"
attr unit bytes
bin	-inf	0
bin	4095	0
bin	4096	26813
bin	4097	0
scalar Net10.rte[5].queue[3] busy:timeavg 0.73217365333335
attr interpolationmode sample-hold
attr recordingmode timeavg
attr title "server busy state, timeavg"
scalar Net10.rte[5].queue[3] qlen:timeavg 0.86104587349503
attr interpolationmode sample-hold
attr recordingmode timeavg
attr title "queue length, timeavg"
scalar Net10.rte[5].queue[3] qlen:max 11
attr interpolationmode sample-hold
attr recordingmode max
attr title "queue length, max"
scalar Net10.rte[5].queue[3] drop:count 0
attr interpolationmode none
attr recordingmode count
attr title "dropped packet byte length, count"
attr unit bytes
scalar Net10.rte[5].queue[3] drop:sum 0
attr interpolationmode none
attr recordingmode sum
attr title "dropped packet byte length, sum"
attr unit bytes
par Net10.rte[5] typename "\"node.Node\""
par Net10.rte[5] address 5
par Net10.rte[5] appType "\"App\""
par Net10.rte[6].app typename "\"node.App\""
par Net10.rte[6].app address 6
par Net10.rte[6].app destAddresses "\"1\""
par Net10.rte[6].app sendIaTime exponential(180ms)
attr unit s
par Net10.rte[6].app packetLength 4096byte
attr unit byte
scalar Net10.rte[6].app hopCount:mean -nan
attr interpolationmode none
attr recordingmode mean
attr title "hop count of arrived packets, mean"
scalar Net10.rte[6].app hopCount:max -nan
attr interpolationmode none
attr recordingmode max
attr title "hop count of arrived packets, max"
scalar Net10.rte[6].app endToEndDelay:mean -nan
attr interpolationmode none
attr recordingmode mean
attr title "end-to-end delay of arrived packets, mean"
attr unit s
scalar Net10.rte[6].app endToEndDelay:max -nan
attr interpolationmode none
attr recordingmode max
attr title "end-to-end delay of arrived packets, max"
attr unit s
par Net10.rte[6].routing typename "\"node.Routing\""
statistic Net10.rte[6].routing outputIf:histogram
field count 13261
field mean 4
field stddev 0
field min 4
field max 4
field sum 53044
field sqrsum 212176
attr interpolationmode none
attr recordingmode histogram
attr title "output interface for each routed packet"
bin	-inf	0
bin	3	0
bin	4	13261
bin	5	0
scalar Net10.rte[6].routing drop:count 0
attr interpolationmode none
attr recordingmode count
attr title "dropped packet byte length, count"
attr unit bytes
scalar Net10.rte[6].routing drop:sum 0
attr interpolationmode none
attr recordingmode sum
attr title "dropped packet byte length, sum"
attr unit bytes
par Net10.rte[6].queue[0] typename "\"node.L2Queue\""
par Net10.rte[6].queue[0] frameCapacity 100
par Net10.rte[6].queue[0] useCutThroughSwitching true
scalar Net10.rte[6].queue[0] rxBytes:count 0
attr interpolationmode none
attr recordingmode count
attr title "received packet byte length, count"
attr unit bytes
scalar Net10.rte[6].queue[0] rxBytes:sum 0
attr interpolationmode none
attr recordingmode sum
attr title "received packet byte length, sum"
attr unit bytes
statistic Net10.rte[6].queue[0] rxBytes:histogram
field count 0
field mean -nan
field stddev -nan
field min -nan
field max -nan
field sum 0
field sqrsum 0
attr interpolationmode none
attr recordingmode histogram
attr title "received packet byte length"
attr unit bytes
bin	-inf	0
bin	0	0
bin	1	0
scalar Net10.rte[6].queue[0] txBytes:count 0
attr interpolationmode none
attr recordingmode count
attr title "transmitting packet byte length, count"
attr unit bytes
scalar Net10.rte[6].queue[0] txBytes:sum 0
attr interpolationmode none
attr recordingmode sum
attr title "transmitting packet byte length, sum"
attr unit bytes
statistic Net10.rte[6].queue[0] txBytes:histogram
field count 0
field mean -nan
field stddev -nan
field min -nan
field max -nan
field sum 0
field sqrsum 0
attr interpolationmode none
attr recordingmode histogram
attr title "transmitting packet byte length"
attr unit bytes
bin	-inf	0
bin	0	0
bin	1	0
scalar Net10.rte[6].queue[0] busy:timeavg 0
attr interpolationmode sample-hold
attr recordingmode timeavg
attr title "server busy state, timeavg"
scalar Net10.rte[6].queue[0] qlen:timeavg 0
attr interpolationmode sample-hold
attr recordingmode timeavg
attr title "queue length, timeavg"
scalar Net10.rte[6].queue[0] qlen:max 0
attr interpolationmode sample-hold
attr recordingmode max
attr title "queue length, max"
scalar Net10.rte[6].queue[0] drop:count 0
attr interpolationmode none
attr recordingmode count
attr title "dropped packet byte length, count"
attr unit bytes
scalar Net10.rte[6].queue[0] drop:sum 0
attr interpolationmode none
attr recordingmode sum
attr title "dropped packet byte length, sum"
attr unit bytes
par Net10.rte[6].queue[1] typename "\"node.L2Queue\""
par Net10.rte[6].queue[1] frameCapacity 100
par Net10.rte[6].queue[1] useCutThroughSwitching true
scalar Net10.rte[6].queue[1] rxBytes:count 0
attr interpolationmode none
attr recordingmode count
attr title "received packet byte length, count"
attr unit bytes
scalar Net10.rte[6].queue[1] rxBytes:sum 0
attr interpolationmode none
attr recordingmode sum
attr title "received packet byte length, sum"
attr unit bytes
statistic Net10.rte[6].queue[1] rxBytes:histogram
field count 0
field mean -nan
field stddev -nan
field min -nan
field max -nan
field sum 0
field sqrsum 0
attr interpolationmode none
attr recordingmode histogram
attr title "received packet byte length"
attr unit bytes
bin	-inf	0
bin	0	0
bin	1	0
scalar Net10.rte[6].queue[1] txBytes:count 0
attr interpolationmode none
attr recordingmode count
attr title "transmitting packet byte length, count"
attr unit bytes
scalar Net10.rte[6].queue[1] txBytes:sum 0
attr interpolationmode none
attr recordingmode sum
attr title "transmitting packet byte length, sum"
attr unit bytes
statistic Net10.rte[6].queue[1] txBytes:histogram
field count 0
field mean -nan
field stddev -nan
field min -nan
field max -nan
field sum 0
field sqrsum 0
attr interpolationmode none
attr recordingmode histogram
attr title "transmitting packet byte length"
attr unit bytes
bin	-inf	0
bin	0	0
bin	1	0
scalar Net10.rte[6].queue[1] busy:timeavg 0
attr interpolationmode sample-hold
attr recordingmode timeavg
attr title "server busy state, timeavg"
scalar Net10.rte[6].queue[1] qlen:timeavg 0
attr interpolationmode sample-hold
attr recordingmode timeavg
attr title "queue length, timeavg"
scalar Net10.rte[6].queue[1] qlen:max 0
attr interpolationmode sample-hold
attr recordingmode max
attr title "queue length, max"
scalar Net10.rte[6].queue[1] drop:count 0
attr interpolationmode none
attr recordingmode count
attr title "dropped packet byte length, count"
attr unit bytes
scalar Net10.rte[6].queue[1] drop:sum 0
attr interpolationmode none
attr recordingmode sum
attr title "dropped packet byte length, sum"
attr unit bytes
par Net10.rte[6].queue[2] typename "\"node.L2Queue\""
par Net10.rte[6].queue[2] frameCapacity 100
par Net10.rte[6].queue[2] useCutThroughSwitching true
scalar Net10.rte[6].queue[2] rxBytes:count 6618
attr interpolationmode none
attr recordingmode count
attr title "received packet byte length, count"
attr unit bytes
scalar Net10.rte[6].queue[2] rxBytes:sum 27107328
attr interpolationmode none
attr recordingmode sum
attr title "received packet byte length, sum"
attr unit bytes
statistic Net10.rte[6].queue[2] rxBytes:histogram
field count 6618
field mean 4096
field stddev 0
field min 4096
field max 4096
field sum 27107328
field sqrsum 111031615488
attr interpolationmode none
attr recordingmode histogram
[...]
field count 0
field mean -nan
field stddev -nan
field min -nan
field max -nan
field sum 0
field sqrsum 0
attr interpolationmode none
attr recordingmode histogram
attr title "received packet byte length"
attr unit bytes
bin	-inf	0
bin	0	0
bin	1	0
scalar Net10.rte[7].queue[1] txBytes:count 0
attr interpolationmode none
attr recordingmode count
attr title "transmitting packet byte length, count"
attr unit bytes
scalar Net10.rte[7].queue[1] txBytes:sum 0
attr interpolationmode none
attr recordingmode sum
attr title "transmitting packet byte length, sum"
attr unit bytes
statistic Net10.rte[7].queue[1] txBytes:histogram
field count 0
field mean -nan
field stddev -nan
field min -nan
field max -nan
field sum 0
field sqrsum 0
attr interpolationmode none
attr recordingmode histogram
attr title "transmitting packet byte length"
attr unit bytes
bin	-inf	0
bin	0	0
bin	1	0
scalar Net10.rte[7].queue[1] busy:timeavg 0
attr interpolationmode sample-hold
attr recordingmode timeavg
attr title "server busy state, timeavg"
scalar Net10.rte[7].queue[1] qlen:timeavg 0
attr interpolationmode sample-hold
attr recordingmode timeavg
attr title "queue length, timeavg"
scalar Net10.rte[7].queue[1] qlen:max 0
attr interpolationmode sample-hold
attr recordingmode max
attr title "queue length, max"
scalar Net10.rte[7].queue[1] drop:count 0
attr interpolationmode none
attr recordingmode count
attr title "dropped packet byte length, count"
attr unit bytes
scalar Net10.rte[7].queue[1] drop:sum 0
attr interpolationmode none
attr recordingmode sum
attr title "dropped packet byte length, sum"
attr unit bytes
par Net10.rte[7].queue[2] typename "\"node.L2Queue\""
par Net10.rte[7].queue[2] frameCapacity 100
par Net10.rte[7].queue[2] useCutThroughSwitching true
scalar Net10.rte[7].queue[2] rxBytes:count 0
attr interpolationmode none
attr recordingmode count
attr title "received packet byte length, count"
attr unit bytes
scalar Net10.rte[7].queue[2] rxBytes:sum 0
attr interpolationmode none
attr recordingmode sum
attr title "received packet byte length, sum"
attr unit bytes
statistic Net10.rte[7].queue[2] rxBytes:histogram
field count 0
field mean -nan
field stddev -nan
field min -nan
field max -nan
field sum 0
field sqrsum 0
attr interpolationmode none
attr recordingmode histogram
attr title "received packet byte length"
attr unit bytes
bin	-inf	0
bin	0	0
bin	1	0
scalar Net10.rte[7].queue[2] txBytes:count 0
attr interpolationmode none
attr recordingmode count
attr title "transmitting packet byte length, count"
attr unit bytes
scalar Net10.rte[7].queue[2] txBytes:sum 0
attr interpolationmode none
attr recordingmode sum
attr title "transmitting packet byte length, sum"
attr unit bytes
statistic Net10.rte[7].queue[2] txBytes:histogram
field count 0
field mean -nan
field stddev -nan
field min -nan
field max -nan
field sum 0
field sqrsum 0
attr interpolationmode none
attr recordingmode histogram
attr title "transmitting packet byte length"
attr unit bytes
bin	-inf	0
bin	0	0
bin	1	0
scalar Net10.rte[7].queue[2] busy:timeavg 0
attr interpolationmode sample-hold
attr recordingmode timeavg
attr title "server busy state, timeavg"
scalar Net10.rte[7].queue[2] qlen:timeavg 0
attr interpolationmode sample-hold
attr recordingmode timeavg
attr title "queue length, timeavg"
scalar Net10.rte[7].queue[2] qlen:max 0
attr interpolationmode sample-hold
attr recordingmode max
attr title "queue length, max"
scalar Net10.rte[7].queue[2] drop:count 0
attr interpolationmode none
attr recordingmode count
attr title "dropped packet byte length, count"
attr unit bytes
scalar Net10.rte[7].queue[2] drop:sum 0
attr interpolationmode none
attr recordingmode sum
attr title "dropped packet byte length, sum"
attr unit bytes
par Net10.rte[7] typename "\"node.Node\""
par Net10.rte[7] address 7
par Net10.rte[7] appType "\"App\""
par Net10.rte[8].app typename "\"node.App\""
par Net10.rte[8].app address 8
par Net10.rte[8].app destAddresses "\"1\""
par Net10.rte[8].app sendIaTime exponential(180ms)
attr unit s
par Net10.rte[8].app packetLength 4096byte
attr unit byte
scalar Net10.rte[8].app hopCount:mean -nan
attr interpolationmode none
attr recordingmode mean
attr title "hop count of arrived packets, mean"
scalar Net10.rte[8].app hopCount:max -nan
attr interpolationmode none
attr recordingmode max
attr title "hop count of arrived packets, max"
scalar Net10.rte[8].app endToEndDelay:mean -nan
attr interpolationmode none
attr recordingmode mean
attr title "end-to-end delay of arrived packets, mean"
attr unit s
scalar Net10.rte[8].app endToEndDelay:max -nan
attr interpolationmode none
attr recordingmode max
attr title "end-to-end delay of arrived packets, max"
attr unit s
par Net10.rte[8].routing typename "\"node.Routing\""
statistic Net10.rte[8].routing outputIf:histogram
field count 6613
field mean 1
field stddev 0
field min 1
field max 1
field sum 6613
field sqrsum 6613
attr interpolationmode none
attr recordingmode histogram
attr title "output interface for each routed packet"
bin	-inf	0
bin	0	0
bin	1	6613
bin	2	0
scalar Net10.rte[8].routing drop:count 0
attr interpolationmode none
attr recordingmode count
attr title "dropped packet byte length, count"
attr unit bytes
scalar Net10.rte[8].routing drop:sum 0
attr interpolationmode none
attr recordingmode sum
attr title "dropped packet byte length, sum"
attr unit bytes
par Net10.rte[8].queue[0] typename "\"node.L2Queue\""
par Net10.rte[8].queue[0] frameCapacity 100
par Net10.rte[8].queue[0] useCutThroughSwitching true
scalar Net10.rte[8].queue[0] rxBytes:count 0
attr interpolationmode none
attr recordingmode count
attr title "received packet byte length, count"
attr unit bytes
scalar Net10.rte[8].queue[0] rxBytes:sum 0
attr interpolationmode none
attr recordingmode sum
attr title "received packet byte length, sum"
attr unit bytes
statistic Net10.rte[8].queue[0] rxBytes:histogram
field count 0
field mean -nan
field stddev -nan
field min -nan
field max -nan
field sum 0
field sqrsum 0
attr interpolationmode none
attr recordingmode histogram
attr title "received packet byte length"
attr unit bytes
bin	-inf	0
bin	0	0
bin	1	0
scalar Net10.rte[8].queue[0] txBytes:count 0
attr interpolationmode none
attr recordingmode count
attr title "transmitting packet byte length, count"
attr unit bytes
scalar Net10.rte[8].queue[0] txBytes:sum 0
attr interpolationmode none
attr recordingmode sum
attr title "transmitting packet byte length, sum"
attr unit bytes
statistic Net10.rte[8].queue[0] txBytes:histogram
field count 0
field mean -nan
field stddev -nan
field min -nan
field max -nan
field sum 0
field sqrsum 0
attr interpolationmode none
attr recordingmode histogram
attr title "transmitting packet byte length"
attr unit bytes
bin	-inf	0
bin	0	0
bin	1	0
scalar Net10.rte[8].queue[0] busy:timeavg 0
attr interpolationmode sample-hold
attr recordingmode timeavg
attr title "server busy state, timeavg"
scalar Net10.rte[8].queue[0] qlen:timeavg 0
attr interpolationmode sample-hold
attr recordingmode timeavg
attr title "queue length, timeavg"
scalar Net10.rte[8].queue[0] qlen:max 0
attr interpolationmode sample-hold
attr recordingmode max
attr title "queue length, max"
scalar Net10.rte[8].queue[0] drop:count 0
attr interpolationmode none
attr recordingmode count
attr title "dropped packet byte length, count"
attr unit bytes
scalar Net10.rte[8].queue[0] drop:sum 0
attr interpolationmode none
attr recordingmode sum
attr title "dropped packet byte length, sum"
attr unit bytes
par Net10.rte[8].queue[1] typename "\"node.L2Queue\""
par Net10.rte[8].queue[1] frameCapacity 100
par Net10.rte[8].queue[1] useCutThroughSwitching true
scalar Net10.rte[8].queue[1] rxBytes:count 0
attr interpolationmode none
attr recordingmode count
attr title "received packet byte length, count"
attr unit bytes
scalar Net10.rte[8].queue[1] rxBytes:sum 0
attr interpolationmode none
attr recordingmode sum
attr title "received packet byte length, sum"
attr unit bytes
statistic Net10.rte[8].queue[1] rxBytes:histogram
field count 0
field mean -nan
field stddev -nan
field min -nan
field max -nan
field sum 0
field sqrsum 0
attr interpolationmode none
attr recordingmode histogram
attr title "received packet byte length"
attr unit bytes
bin	-inf	0
bin	0	0
bin	1	0
scalar Net10.rte[8].queue[1] txBytes:count 6613
attr interpolationmode none
attr recordingmode count
attr title "transmitting packet byte length, count"
attr unit bytes
scalar Net10.rte[8].queue[1] txBytes:sum 27086848
attr interpolationmode none
attr recordingmode sum
attr title "transmitting packet byte length, sum"
attr unit bytes
statistic Net10.rte[8].queue[1] txBytes:histogram
field count 6613
field mean 4096
field stddev 0
field min 4096
field max 4096
field sum 27086848
field sqrsum 110947729408
attr interpolationmode none
attr recordingmode histogram
attr title "transmitting packet byte length"
attr unit bytes
bin	-inf	0
bin	4095	0
bin	4096	6613
bin	4097	0
scalar Net10.rte[8].queue[1] busy:timeavg 0.18056231799291
attr interpolationmode sample-hold
attr recordingmode timeavg
attr title "server busy state, timeavg"
scalar Net10.rte[8].queue[1] qlen:timeavg 0.019432362789849
attr interpolationmode sample-hold
attr recordingmode timeavg
attr title "queue length, timeavg"
scalar Net10.rte[8].queue[1] qlen:max 6
attr interpolationmode sample-hold
attr recordingmode max
attr title "queue length, max"
scalar Net10.rte[8].queue[1] drop:count 0
attr interpolationmode none
attr recordingmode count
attr title "dropped packet byte length, count"
attr unit bytes
scalar Net10.rte[8].queue[1] drop:sum 0
attr interpolationmode none
attr recordingmode sum
attr title "dropped packet byte length, sum"
attr unit bytes
par Net10.rte[8].queue[2] typename "\"node.L2Queue\""
par Net10.rte[8].queue[2] frameCapacity 100
par Net10.rte[8].queue[2] useCutThroughSwitching true
scalar Net10.rte[8].queue[2] rxBytes:count 0
attr interpolationmode none
attr recordingmode count
attr title "received packet byte length, count"
attr unit bytes
scalar Net10.rte[8].queue[2] rxBytes:sum 0
attr interpolationmode none
attr recordingmode sum
attr title "received packet byte length, sum"
attr unit bytes
statistic Net10.rte[8].queue[2] rxBytes:histogram
field count 0
field mean -nan
field stddev -nan
field min -nan
field max -nan
field sum 0
field sqrsum 0
attr interpolationmode none
attr recordingmode histogram
attr title "received packet byte length"
attr unit bytes
bin	-inf	0
bin	0	0
bin	1	0
scalar Net10.rte[8].queue[2] txBytes:count 0
attr interpolationmode none
attr recordingmode count
attr title "transmitting packet byte length, count"
attr unit bytes
scalar Net10.rte[8].queue[2] txBytes:sum 0
attr interpolationmode none
attr recordingmode sum
attr title "transmitting packet byte length, sum"
attr unit bytes
statistic Net10.rte[8].queue[2] txBytes:histogram
field count 0
field mean -nan
field stddev -nan
field min -nan
field max -nan
field sum 0
field sqrsum 0
attr interpolationmode none
attr recordingmode histogram
attr title "transmitting packet byte length"
attr unit bytes
bin	-inf	0
bin	0	0
bin	1	0
scalar Net10.rte[8].queue[2] busy:timeavg 0
attr interpolationmode sample-hold
attr recordingmode timeavg
attr title "server busy state, timeavg"
scalar Net10.rte[8].queue[2] qlen:timeavg 0
attr interpolationmode sample-hold
attr recordingmode timeavg
attr title "queue length, timeavg"
scalar Net10.rte[8].queue[2] qlen:max 0
attr interpolationmode sample-hold
attr recordingmode max
attr title "queue length, max"
scalar Net10.rte[8].queue[2] drop:count 0
attr interpolationmode none
attr recordingmode count
attr title "dropped packet byte length, count"
attr unit bytes
scalar Net10.rte[8].queue[2] drop:sum 0
attr interpolationmode none
attr recordingmode sum
attr title "dropped packet byte length, sum"
attr unit bytes
par Net10.rte[8] typename "\"node.Node\""
par Net10.rte[8] address 8
par Net10.rte[8] appType "\"App\""
par Net10.rte[9].app typename "\"node.App\""
par Net10.rte[9].app address 9
par Net10.rte[9].app destAddresses "\"1\""
par Net10.rte[9].app sendIaTime exponential(180ms)
attr unit s
par Net10.rte[9].app packetLength 4096byte
attr unit byte
scalar Net10.rte[9].app hopCount:mean -nan
attr interpolationmode none
attr recordingmode mean
attr title "hop count of arrived packets, mean"
scalar Net10.rte[9].app hopCount:max -nan
attr interpolationmode none
attr recordingmode max
attr title "hop count of arrived packets, max"
scalar Net10.rte[9].app endToEndDelay:mean -nan
attr interpolationmode none
attr recordingmode mean
attr title "end-to-end delay of arrived packets, mean"
attr unit s
scalar Net10.rte[9].app endToEndDelay:max -nan
attr interpolationmode none
attr recordingmode max
attr title "end-to-end delay of arrived packets, max"
attr unit s
par Net10.rte[9].routing typename "\"node.Routing\""
statistic Net10.rte[9].routing outputIf:histogram
field count 6618
field mean 2
field stddev 0
field min 2
field max 2
field sum 13236
field sqrsum 26472
attr interpolationmode none
attr recordingmode histogram
attr title "output interface for each routed packet"
bin	-inf	0
bin	1	0
bin	2	6618
bin	3	0
scalar Net10.rte[9].routing drop:count 0
attr interpolationmode none
attr recordingmode count
attr title "dropped packet byte length, count"
attr unit bytes
scalar Net10.rte[9].routing drop:sum 0
attr interpolationmode none
attr recordingmode sum
attr title "dropped packet byte length, sum"
attr unit bytes
par Net10.rte[9].queue[0] typename "\"node.L2Queue\""
par Net10.rte[9].queue[0] frameCapacity 100
par Net10.rte[9].queue[0] useCutThroughSwitching true
scalar Net10.rte[9].queue[0] rxBytes:count 0
attr interpolationmode none
attr recordingmode count
attr title "received packet byte length, count"
attr unit bytes
scalar Net10.rte[9].queue[0] rxBytes:sum 0
attr interpolationmode none
attr recordingmode sum
attr title "received packet byte length, sum"
attr unit bytes
statistic Net10.rte[9].queue[0] rxBytes:histogram
field count 0
field mean -nan
field stddev -nan
field min -nan
field max -nan
field sum 0
field sqrsum 0
attr interpolationmode none
attr recordingmode histogram
attr title "received packet byte length"
attr unit bytes
bin	-inf	0
bin	0	0
bin	1	0
scalar Net10.rte[9].queue[0] txBytes:count 0
attr interpolationmode none
attr recordingmode count
attr title "transmitting packet byte length, count"
attr unit bytes
scalar Net10.rte[9].queue[0] txBytes:sum 0
attr interpolationmode none
attr recordingmode sum
attr title "transmitting packet byte length, sum"
attr unit bytes
statistic Net10.rte[9].queue[0] txBytes:histogram
field count 0
field mean -nan
field stddev -nan
field min -nan
field max -nan
field sum 0
field sqrsum 0
attr interpolationmode none
attr recordingmode histogram
attr title "transmitting packet byte length"
attr unit bytes
bin	-inf	0
bin	0	0
bin	1	0
scalar Net10.rte[9].queue[0] busy:timeavg 0
attr interpolationmode sample-hold
attr recordingmode timeavg
attr title "server busy state, timeavg"
scalar Net10.rte[9].queue[0] qlen:timeavg 0
attr interpolationmode sample-hold
attr recordingmode timeavg
attr title "queue length, timeavg"
scalar Net10.rte[9].queue[0] qlen:max 0
attr interpolationmode sample-hold
attr recordingmode max
attr title "queue length, max"
scalar Net10.rte[9].queue[0] drop:count 0
attr interpolationmode none
attr recordingmode count
attr title "dropped packet byte length, count"
attr unit bytes
scalar Net10.rte[9].queue[0] drop:sum 0
attr interpolationmode none
attr recordingmode sum
attr title "dropped packet byte length, sum"
attr unit bytes
par Net10.rte[9].queue[1] typename "\"node.L2Queue\""
par Net10.rte[9].queue[1] frameCapacity 100
par Net10.rte[9].queue[1] useCutThroughSwitching true
scalar Net10.rte[9].queue[1] rxBytes:count 0
attr interpolationmode none
attr recordingmode count
attr title "received packet byte length, count"
attr unit bytes
scalar Net10.rte[9].queue[1] rxBytes:sum 0
attr interpolationmode none
attr recordingmode sum
attr title "received packet byte length, sum"
attr unit bytes
statistic Net10.rte[9].queue[1] rxBytes:histogram
field count 0
field mean -nan
field stddev -nan
field min -nan
field max -nan
field sum 0
field sqrsum 0
attr interpolationmode none
attr recordingmode histogram
attr title "received packet byte length"
attr unit bytes
bin	-inf	0
bin	0	0
bin	1	0
scalar Net10.rte[9].queue[1] txBytes:count 0
attr interpolationmode none
attr recordingmode count
attr title "transmitting packet byte length, count"
attr unit bytes
scalar Net10.rte[9].queue[1] txBytes:sum 0
attr interpolationmode none
attr recordingmode sum
attr title "transmitting packet byte length, sum"
attr unit bytes
statistic Net10.rte[9].queue[1] txBytes:histogram
field count 0
field mean -nan
field stddev -nan
field min -nan
field max -nan
field sum 0
field sqrsum 0
attr interpolationmode none
attr recordingmode histogram
attr title "transmitting packet byte length"
attr unit bytes
bin	-inf	0
bin	0	0
bin	1	0
scalar Net10.rte[9].queue[1] busy:timeavg 0
attr interpolationmode sample-hold
attr recordingmode timeavg
attr title "server busy state, timeavg"
scalar Net10.rte[9].queue[1] qlen:timeavg 0
attr interpolationmode sample-hold
attr recordingmode timeavg
attr title "queue length, timeavg"
scalar Net10.rte[9].queue[1] qlen:max 0
attr interpolationmode sample-hold
attr recordingmode max
attr title "queue length, max"
scalar Net10.rte[9].queue[1] drop:count 0
attr interpolationmode none
attr recordingmode count
attr title "dropped packet byte length, count"
attr unit bytes
scalar Net10.rte[9].queue[1] drop:sum 0
attr interpolationmode none
attr recordingmode sum
attr title "dropped packet byte length, sum"
attr unit bytes
par Net10.rte[9].queue[2] typename "\"node.L2Queue\""
par Net10.rte[9].queue[2] frameCapacity 100
par Net10.rte[9].queue[2] useCutThroughSwitching true
scalar Net10.rte[9].queue[2] rxBytes:count 0
attr interpolationmode none
attr recordingmode count
attr title "received packet byte length, count"
attr unit bytes
scalar Net10.rte[9].queue[2] rxBytes:sum 0
attr interpolationmode none
attr recordingmode sum
attr title "received packet byte length, sum"
attr unit bytes
statistic Net10.rte[9].queue[2] rxBytes:histogram
field count 0
field mean -nan
field stddev -nan
field min -nan
field max -nan
field sum 0
field sqrsum 0
attr interpolationmode none
attr recordingmode histogram
attr title "received packet byte length"
attr unit bytes
bin	-inf	0
bin	0	0
bin	1	0
scalar Net10.rte[9].queue[2] txBytes:count 6618
attr interpolationmode none
attr recordingmode count
attr title "transmitting packet byte length, count"
attr unit bytes
scalar Net10.rte[9].queue[2] txBytes:sum 27107328
attr interpolationmode none
attr recordingmode sum
attr title "transmitting packet byte length, sum"
attr unit bytes
statistic Net10.rte[9].queue[2] txBytes:histogram
field count 6618
field mean 4096
field stddev 0
field min 4096
field max 4096
field sum 27107328
field sqrsum 111031615488
attr interpolationmode none
attr recordingmode histogram
attr title "transmitting packet byte length"
attr unit bytes
bin	-inf	0
bin	4095	0
bin	4096	6618
bin	4097	0
scalar Net10.rte[9].queue[2] busy:timeavg 0.18071552000001
attr interpolationmode sample-hold
attr recordingmode timeavg
attr title "server busy state, timeavg"
scalar Net10.rte[9].queue[2] qlen:timeavg 0.020377144505283
attr interpolationmode sample-hold
attr recordingmode timeavg
attr title "queue length, timeavg"
scalar Net10.rte[9].queue[2] qlen:max 3
attr interpolationmode sample-hold
attr recordingmode max
attr title "queue length, max"
scalar Net10.rte[9].queue[2] drop:count 0
attr interpolationmode none
attr recordingmode count
attr title "dropped packet byte length, count"
attr unit bytes
scalar Net10.rte[9].queue[2] drop:sum 0
attr interpolationmode none
attr recordingmode sum
attr title "dropped packet byte length, sum"
attr unit bytes
par Net10.rte[9] typename "\"node.Node\""
par Net10.rte[9] address 9
par Net10.rte[9] appType "\"App\""
par Net10 typename "\"networks.Net10\""

