version 3
run Net10Experiment-9-20211207-20:10:24-304024
attr configname Net10Experiment
attr datetime 20211207-20:10:24
attr datetimef 20211207-201024
attr experiment Net10Experiment
attr inifile omnetpp.ini
attr iterationvars "$iaMean=210, $cutThrough=true"
attr iterationvarsd iaMean=210/cutThrough=true
attr iterationvarsf iaMean=210,cutThrough=true-
attr measurement "$iaMean=210, $cutThrough=true"
attr network networks.Net10
attr processid 304024
attr repetition 0
attr replication #0
attr resultdir results
attr runnumber 9
attr seedset 9
itervar cutThrough true
itervar iaMean 210
config cmdenv-redirect-output true
config network networks.Net10
config **.destAddresses "\"1\""
config **.app.sendIaTime "exponential(210 ms)"
config **.queue[*].useCutThroughSwitching true
config **.queue[*].frameCapacity 100
config **.vector-recording false
config sim-time-limit 1200s
config **.appType "\"App\""
config **.app.packetLength "4096 bytes"

par Net10.rte[1].port$o[0].channel typename "\"networks.Net10.C\""
par Net10.rte[1].port$o[0].channel disabled false
attr mutable ""
par Net10.rte[1].port$o[0].channel delay 0.000109337s
attr mutable ""
attr unit s
par Net10.rte[1].port$o[0].channel datarate 1e+06bps
attr mutable ""
attr unit bps
par Net10.rte[1].port$o[0].channel ber 0
attr mutable ""
par Net10.rte[1].port$o[0].channel per 0
attr mutable ""
par Net10.rte[0].port$o[0].channel typename "\"networks.Net10.C\""
par Net10.rte[0].port$o[0].channel disabled false
attr mutable ""
par Net10.rte[0].port$o[0].channel delay 0.000428015s
attr mutable ""
attr unit s
par Net10.rte[0].port$o[0].channel datarate 1e+06bps
attr mutable ""
attr unit bps
par Net10.rte[0].port$o[0].channel ber 0
attr mutable ""
par Net10.rte[0].port$o[0].channel per 0
attr mutable ""
par Net10.rte[0].port$o[1].channel typename "\"networks.Net10.C\""
par Net10.rte[0].port$o[1].channel disabled false
attr mutable ""
par Net10.rte[0].port$o[1].channel delay 0.000551687s
attr mutable ""
attr unit s
par Net10.rte[0].port$o[1].channel datarate 1e+06bps
attr mutable ""
attr unit bps
par Net10.rte[0].port$o[1].channel ber 0
attr mutable ""
par Net10.rte[0].port$o[1].channel per 0
attr mutable ""
par Net10.rte[2].port$o[0].channel typename "\"networks.Net10.C\""
par Net10.rte[2].port$o[0].channel disabled false
attr mutable ""
par Net10.rte[2].port$o[0].channel delay 0.000549217s
attr mutable ""
attr unit s
par Net10.rte[2].port$o[0].channel datarate 1e+06bps
attr mutable ""
attr unit bps
par Net10.rte[2].port$o[0].channel ber 0
attr mutable ""
par Net10.rte[2].port$o[0].channel per 0
attr mutable ""
par Net10.rte[2].port$o[1].channel typename "\"networks.Net10.C\""
par Net10.rte[2].port$o[1].channel disabled false
attr mutable ""
par Net10.rte[2].port$o[1].channel delay 0.000546196s
attr mutable ""
attr unit s
par Net10.rte[2].port$o[1].channel datarate 1e+06bps
attr mutable ""
attr unit bps
par Net10.rte[2].port$o[1].channel ber 0
attr mutable ""
par Net10.rte[2].port$o[1].channel per 0
attr mutable ""
par Net10.rte[5].port$o[0].channel typename "\"networks.Net10.C\""
par Net10.rte[5].port$o[0].channel disabled false
attr mutable ""
par Net10.rte[5].port$o[0].channel delay 0.000106789s
attr mutable ""
attr unit s
par Net10.rte[5].port$o[0].channel datarate 1e+06bps
attr mutable ""
attr unit bps
par Net10.rte[5].port$o[0].channel ber 0
attr mutable ""
par Net10.rte[5].port$o[0].channel per 0
attr mutable ""
par Net10.rte[5].port$o[1].channel typename "\"networks.Net10.C\""
par Net10.rte[5].port$o[1].channel disabled false
attr mutable ""
par Net10.rte[5].port$o[1].channel delay 0.000220447s
attr mutable ""
attr unit s
par Net10.rte[5].port$o[1].channel datarate 1e+06bps
attr mutable ""
attr unit bps
par Net10.rte[5].port$o[1].channel ber 0
attr mutable ""
par Net10.rte[5].port$o[1].channel per 0
attr mutable ""
par Net10.rte[7].port$o[0].channel typename "\"networks.Net10.C\""
par Net10.rte[7].port$o[0].channel disabled false
attr mutable ""
par Net10.rte[7].port$o[0].channel delay 0.000384602s
attr mutable ""
attr unit s
par Net10.rte[7].port$o[0].channel datarate 1e+06bps
attr mutable ""
attr unit bps
par Net10.rte[7].port$o[0].channel ber 0
attr mutable ""
par Net10.rte[7].port$o[0].channel per 0
attr mutable ""
par Net10.rte[7].port$o[1].channel typename "\"networks.Net10.C\""
par Net10.rte[7].port$o[1].channel disabled false
attr mutable ""
par Net10.rte[7].port$o[1].channel delay 0.0002279s
attr mutable ""
attr unit s
par Net10.rte[7].port$o[1].channel datarate 1e+06bps
attr mutable ""
attr unit bps
par Net10.rte[7].port$o[1].channel ber 0
attr mutable ""
par Net10.rte[7].port$o[1].channel per 0
attr mutable ""
par Net10.rte[9].port$o[0].channel typename "\"networks.Net10.C\""
par Net10.rte[9].port$o[0].channel disabled false
attr mutable ""
par Net10.rte[9].port$o[0].channel delay 0.00011199s
attr mutable ""
attr unit s
par Net10.rte[9].port$o[0].channel datarate 1e+06bps
attr mutable ""
attr unit bps
par Net10.rte[9].port$o[0].channel ber 0
attr mutable ""
par Net10.rte[9].port$o[0].channel per 0
attr mutable ""
par Net10.rte[9].port$o[1].channel typename "\"networks.Net10.C\""
par Net10.rte[9].port$o[1].channel disabled false
attr mutable ""
par Net10.rte[9].port$o[1].channel delay 0.000296703s
attr mutable ""
attr unit s
par Net10.rte[9].port$o[1].channel datarate 1e+06bps
attr mutable ""
attr unit bps
par Net10.rte[9].port$o[1].channel ber 0
attr mutable ""
par Net10.rte[9].port$o[1].channel per 0
attr mutable ""
par Net10.rte[8].port$o[0].channel typename "\"networks.Net10.C\""
par Net10.rte[8].port$o[0].channel disabled false
attr mutable ""
par Net10.rte[8].port$o[0].channel delay 0.000889499s
attr mutable ""
attr unit s
par Net10.rte[8].port$o[0].channel datarate 1e+06bps
attr mutable ""
attr unit bps
par Net10.rte[8].port$o[0].channel ber 0
attr mutable ""
par Net10.rte[8].port$o[0].channel per 0
attr mutable ""
par Net10.rte[8].port$o[1].channel typename "\"networks.Net10.C\""
par Net10.rte[8].port$o[1].channel disabled false
attr mutable ""
par Net10.rte[8].port$o[1].channel delay 0.000476657s
attr mutable ""
attr unit s
par Net10.rte[8].port$o[1].channel datarate 1e+06bps
attr mutable ""
attr unit bps
par Net10.rte[8].port$o[1].channel ber 0
attr mutable ""
par Net10.rte[8].port$o[1].channel per 0
attr mutable ""
par Net10.rte[4].port$o[0].channel typename "\"networks.Net10.C\""
par Net10.rte[4].port$o[0].channel disabled false
attr mutable ""
par Net10.rte[4].port$o[0].channel delay 0.000223774s
attr mutable ""
attr unit s
par Net10.rte[4].port$o[0].channel datarate 1e+06bps
attr mutable ""
attr unit bps
par Net10.rte[4].port$o[0].channel ber 0
attr mutable ""
par Net10.rte[4].port$o[0].channel per 0
attr mutable ""
par Net10.rte[4].port$o[1].channel typename "\"networks.Net10.C\""
par Net10.rte[4].port$o[1].channel disabled false
attr mutable ""
par Net10.rte[4].port$o[1].channel delay 0.000323291s
attr mutable ""
attr unit s
par Net10.rte[4].port$o[1].channel datarate 1e+06bps
attr mutable ""
attr unit bps
par Net10.rte[4].port$o[1].channel ber 0
attr mutable ""
par Net10.rte[4].port$o[1].channel per 0
attr mutable ""
par Net10.rte[3].port$o[0].channel typename "\"networks.Net10.C\""
par Net10.rte[3].port$o[0].channel disabled false
attr mutable ""
par Net10.rte[3].port$o[0].channel delay 0.000224752s
attr mutable ""
attr unit s
par Net10.rte[3].port$o[0].channel datarate 1e+06bps
attr mutable ""
attr unit bps
par Net10.rte[3].port$o[0].channel ber 0
attr mutable ""
par Net10.rte[3].port$o[0].channel per 0
attr mutable ""
par Net10.rte[3].port$o[1].channel typename "\"networks.Net10.C\""
par Net10.rte[3].port$o[1].channel disabled false
attr mutable ""
par Net10.rte[3].port$o[1].channel delay 0.000175654s
attr mutable ""
attr unit s
par Net10.rte[3].port$o[1].channel datarate 1e+06bps
attr mutable ""
attr unit bps
par Net10.rte[3].port$o[1].channel ber 0
attr mutable ""
par Net10.rte[3].port$o[1].channel per 0
attr mutable ""
par Net10.rte[1].port$o[1].channel typename "\"networks.Net10.C\""
par Net10.rte[1].port$o[1].channel disabled false
attr mutable ""
par Net10.rte[1].port$o[1].channel delay 0.000456297s
attr mutable ""
attr unit s
par Net10.rte[1].port$o[1].channel datarate 1e+06bps
attr mutable ""
attr unit bps
par Net10.rte[1].port$o[1].channel ber 0
attr mutable ""
par Net10.rte[1].port$o[1].channel per 0
attr mutable ""
par Net10.rte[3].port$o[2].channel typename "\"networks.Net10.C\""
par Net10.rte[3].port$o[2].channel disabled false
attr mutable ""
par Net10.rte[3].port$o[2].channel delay 0.000410949s
attr mutable ""
attr unit s
par Net10.rte[3].port$o[2].channel datarate 1e+06bps
attr mutable ""
attr unit bps
par Net10.rte[3].port$o[2].channel ber 0
attr mutable ""
par Net10.rte[3].port$o[2].channel per 0
attr mutable ""
par Net10.rte[2].port$o[2].channel typename "\"networks.Net10.C\""
par Net10.rte[2].port$o[2].channel disabled false
attr mutable ""
par Net10.rte[2].port$o[2].channel delay 0.000545189s
attr mutable ""
attr unit s
par Net10.rte[2].port$o[2].channel datarate 1e+06bps
attr mutable ""
attr unit bps
par Net10.rte[2].port$o[2].channel ber 0
attr mutable ""
par Net10.rte[2].port$o[2].channel per 0
attr mutable ""
par Net10.rte[2].port$o[3].channel typename "\"networks.Net10.C\""
par Net10.rte[2].port$o[3].channel disabled false
attr mutable ""
par Net10.rte[2].port$o[3].channel delay 0.000250099s
attr mutable ""
attr unit s
par Net10.rte[2].port$o[3].channel datarate 1e+06bps
attr mutable ""
attr unit bps
par Net10.rte[2].port$o[3].channel ber 0
attr mutable ""
par Net10.rte[2].port$o[3].channel per 0
attr mutable ""
par Net10.rte[4].port$o[2].channel typename "\"networks.Net10.C\""
par Net10.rte[4].port$o[2].channel disabled false
attr mutable ""
par Net10.rte[4].port$o[2].channel delay 0.000384138s
attr mutable ""
attr unit s
par Net10.rte[4].port$o[2].channel datarate 1e+06bps
attr mutable ""
attr unit bps
par Net10.rte[4].port$o[2].channel ber 0
attr mutable ""
par Net10.rte[4].port$o[2].channel per 0
attr mutable ""
par Net10.rte[4].port$o[3].channel typename "\"networks.Net10.C\""
par Net10.rte[4].port$o[3].channel disabled false
attr mutable ""
par Net10.rte[4].port$o[3].channel delay 0.000890703s
attr mutable ""
attr unit s
par Net10.rte[4].port$o[3].channel datarate 1e+06bps
attr mutable ""
attr unit bps
par Net10.rte[4].port$o[3].channel ber 0
attr mutable ""
par Net10.rte[4].port$o[3].channel per 0
attr mutable ""
par Net10.rte[6].port$o[0].channel typename "\"networks.Net10.C\""
par Net10.rte[6].port$o[0].channel disabled false
attr mutable ""
par Net10.rte[6].port$o[0].channel delay 0.000436556s
attr mutable ""
attr unit s
par Net10.rte[6].port$o[0].channel datarate 1e+06bps
attr mutable ""
attr unit bps
par Net10.rte[6].port$o[0].channel ber 0
attr mutable ""
par Net10.rte[6].port$o[0].channel per 0
attr mutable ""
par Net10.rte[6].port$o[1].channel typename "\"networks.Net10.C\""
par Net10.rte[6].port$o[1].channel disabled false
attr mutable ""
par Net10.rte[6].port$o[1].channel delay 0.000955868s
attr mutable ""
attr unit s
par Net10.rte[6].port$o[1].channel datarate 1e+06bps
attr mutable ""
attr unit bps
par Net10.rte[6].port$o[1].channel ber 0
attr mutable ""
par Net10.rte[6].port$o[1].channel per 0
attr mutable ""
par Net10.rte[8].port$o[2].channel typename "\"networks.Net10.C\""
par Net10.rte[8].port$o[2].channel disabled false
attr mutable ""
par Net10.rte[8].port$o[2].channel delay 0.000761192s
attr mutable ""
attr unit s
par Net10.rte[8].port$o[2].channel datarate 1e+06bps
attr mutable ""
attr unit bps
par Net10.rte[8].port$o[2].channel ber 0
attr mutable ""
par Net10.rte[8].port$o[2].channel per 0
attr mutable ""
par Net10.rte[9].port$o[2].channel typename "\"networks.Net10.C\""
par Net10.rte[9].port$o[2].channel disabled false
attr mutable ""
par Net10.rte[9].port$o[2].channel delay 0.000134874s
attr mutable ""
attr unit s
par Net10.rte[9].port$o[2].channel datarate 1e+06bps
attr mutable ""
attr unit bps
par Net10.rte[9].port$o[2].channel ber 0
attr mutable ""
par Net10.rte[9].port$o[2].channel per 0
attr mutable ""
par Net10.rte[6].port$o[2].channel typename "\"networks.Net10.C\""
par Net10.rte[6].port$o[2].channel disabled false
attr mutable ""
par Net10.rte[6].port$o[2].channel delay 0.000971114s
attr mutable ""
attr unit s
par Net10.rte[6].port$o[2].channel datarate 1e+06bps
attr mutable ""
attr unit bps
par Net10.rte[6].port$o[2].channel ber 0
attr mutable ""
par Net10.rte[6].port$o[2].channel per 0
attr mutable ""
par Net10.rte[6].port$o[3].channel typename "\"networks.Net10.C\""
par Net10.rte[6].port$o[3].channel disabled false
attr mutable ""
par Net10.rte[6].port$o[3].channel delay 0.000729197s
attr mutable ""
attr unit s
par Net10.rte[6].port$o[3].channel datarate 1e+06bps
attr mutable ""
attr unit bps
par Net10.rte[6].port$o[3].channel ber 0
attr mutable ""
par Net10.rte[6].port$o[3].channel per 0
attr mutable ""
par Net10.rte[7].port$o[2].channel typename "\"networks.Net10.C\""
par Net10.rte[7].port$o[2].channel disabled false
attr mutable ""
par Net10.rte[7].port$o[2].channel delay 0.000731394s
attr mutable ""
attr unit s
par Net10.rte[7].port$o[2].channel datarate 1e+06bps
attr mutable ""
attr unit bps
par Net10.rte[7].port$o[2].channel ber 0
attr mutable ""
par Net10.rte[7].port$o[2].channel per 0
attr mutable ""
par Net10.rte[5].port$o[2].channel typename "\"networks.Net10.C\""
par Net10.rte[5].port$o[2].channel disabled false
attr mutable ""
par Net10.rte[5].port$o[2].channel delay 0.000615484s
attr mutable ""
attr unit s
par Net10.rte[5].port$o[2].channel datarate 1e+06bps
attr mutable ""
attr unit bps
par Net10.rte[5].port$o[2].channel ber 0
attr mutable ""
par Net10.rte[5].port$o[2].channel per 0
attr mutable ""
par Net10.rte[6].port$o[4].channel typename "\"networks.Net10.C\""
par Net10.rte[6].port$o[4].channel disabled false
attr mutable ""
par Net10.rte[6].port$o[4].channel delay 0.000221883s
attr mutable ""
attr unit s
par Net10.rte[6].port$o[4].channel datarate 1e+06bps
attr mutable ""
attr unit bps
par Net10.rte[6].port$o[4].channel ber 0
attr mutable ""
par Net10.rte[6].port$o[4].channel per 0
attr mutable ""
par Net10.rte[0].port$o[2].channel typename "\"networks.Net10.C\""
par Net10.rte[0].port$o[2].channel disabled false
attr mutable ""
par Net10.rte[0].port$o[2].channel delay 0.000908206s
attr mutable ""
attr unit s
par Net10.rte[0].port$o[2].channel datarate 1e+06bps
attr mutable ""
attr unit bps
par Net10.rte[0].port$o[2].channel ber 0
attr mutable ""
par Net10.rte[0].port$o[2].channel per 0
attr mutable ""
par Net10.rte[5].port$o[3].channel typename "\"networks.Net10.C\""
par Net10.rte[5].port$o[3].channel disabled false
attr mutable ""
par Net10.rte[5].port$o[3].channel delay 0.000222406s
attr mutable ""
attr unit s
par Net10.rte[5].port$o[3].channel datarate 1e+06bps
attr mutable ""
attr unit bps
par Net10.rte[5].port$o[3].channel ber 0
attr mutable ""
par Net10.rte[5].port$o[3].channel per 0
attr mutable ""
par Net10.rte[1].port$o[2].channel typename "\"networks.Net10.C\""
par Net10.rte[1].port$o[2].channel disabled false
attr mutable ""
par Net10.rte[1].port$o[2].channel delay 0.000700209s
attr mutable ""
attr unit s
par Net10.rte[1].port$o[2].channel datarate 1e+06bps
attr mutable ""
attr unit bps
par Net10.rte[1].port$o[2].channel ber 0
attr mutable ""
par Net10.rte[1].port$o[2].channel per 0
attr mutable ""
par Net10.rte[2].port$o[4].channel typename "\"networks.Net10.C\""
par Net10.rte[2].port$o[4].channel disabled false
attr mutable ""
par Net10.rte[2].port$o[4].channel delay 0.000955726s
attr mutable ""
attr unit s
par Net10.rte[2].port$o[4].channel datarate 1e+06bps
attr mutable ""
attr unit bps
par Net10.rte[2].port$o[4].channel ber 0
attr mutable ""
par Net10.rte[2].port$o[4].channel per 0
attr mutable ""
par Net10.rte[0].app typename "\"node.App\""
par Net10.rte[0].app address 0
par Net10.rte[0].app destAddresses "\"1\""
par Net10.rte[0].app sendIaTime exponential(210ms)
attr unit s
par Net10.rte[0].app packetLength 4096byte
attr unit byte
scalar Net10.rte[0].app hopCount:mean -nan
attr interpolationmode none
attr recordingmode mean
attr title "hop count of arrived packets, mean"
scalar Net10.rte[0].app hopCount:max -nan
attr interpolationmode none
attr recordingmode max
attr title "hop count of arrived packets, max"
scalar Net10.rte[0].app endToEndDelay:mean -nan
attr interpolationmode none
attr recordingmode mean
attr title "end-to-end delay of arrived packets, mean"
attr unit s
scalar Net10.rte[0].app endToEndDelay:max -nan
attr interpolationmode none
attr recordingmode max
attr title "end-to-end delay of arrived packets, max"
attr unit s
par Net10.rte[0].routing typename "\"node.Routing\""
statistic Net10.rte[0].routing outputIf:histogram
field count 28506
field mean 0
field stddev 0
field min 0
field max 0
field sum 0
field sqrsum 0
attr interpolationmode none
attr recordingmode histogram
attr title "output interface for each routed packet"
bin	-inf	0
bin	-0.5	0
bin	-0.48	0
bin	-0.46	0
bin	-0.44	0
bin	-0.42	0
bin	-0.4	0
bin	-0.38	0
bin	-0.36	0
bin	-0.34	0
bin	-0.32	0
bin	-0.3	0
bin	-0.28	0
bin	-0.26	0
bin	-0.24	0
bin	-0.22	0
bin	-0.2	0
bin	-0.18	0
bin	-0.16	0
bin	-0.14	0
bin	-0.12	0
bin	-0.1	0
bin	-0.08	0
bin	-0.06	0
bin	-0.04	0
bin	-0.02	0
bin	0	28506
bin	0.02	0
bin	0.04	0
bin	0.06	0
bin	0.08	0
bin	0.1	0
bin	0.12	0
bin	0.14	0
bin	0.16	0
bin	0.18	0
bin	0.2	0
bin	0.22	0
bin	0.24	0
bin	0.26	0
bin	0.28	0
bin	0.3	0
bin	0.32	0
bin	0.34	0
bin	0.36	0
bin	0.38	0
bin	0.4	0
bin	0.42	0
bin	0.44	0
bin	0.46	0
bin	0.48	0
bin	0.5	0
scalar Net10.rte[0].routing drop:count 0
attr interpolationmode none
attr recordingmode count
attr title "dropped packet byte length, count"
attr unit bytes
scalar Net10.rte[0].routing drop:sum 0
attr interpolationmode none
attr recordingmode sum
attr title "dropped packet byte length, sum"
attr unit bytes
par Net10.rte[0].queue[0] typename "\"node.L2Queue\""
par Net10.rte[0].queue[0] frameCapacity 100
par Net10.rte[0].queue[0] useCutThroughSwitching true
scalar Net10.rte[0].queue[0] rxBytes:count 0
attr interpolationmode none
attr recordingmode count
attr title "received packet byte length, count"
attr unit bytes
scalar Net10.rte[0].queue[0] rxBytes:sum 0
attr interpolationmode none
attr recordingmode sum
attr title "received packet byte length, sum"
attr unit bytes
statistic Net10.rte[0].queue[0] rxBytes:histogram
field count 0
field mean -nan
field stddev -nan
field min -nan
field max -nan
field sum 0
field sqrsum 0
attr interpolationmode none
attr recordingmode histogram
attr title "received packet byte length"
attr unit bytes
bin	-inf	0
bin	0	0
bin	1	0
scalar Net10.rte[0].queue[0] txBytes:count 28506
attr interpolationmode none
attr recordingmode count
attr title "transmitting packet byte length, count"
attr unit bytes
scalar Net10.rte[0].queue[0] txBytes:sum 116760576
attr interpolationmode none
attr recordingmode sum
attr title "transmitting packet byte length, sum"
attr unit bytes
statistic Net10.rte[0].queue[0] txBytes:histogram
field count 28506
field mean 4096
field stddev 0
field min 4096
field max 4096
field sum 116760576
field sqrsum 478251319296
attr interpolationmode none
attr recordingmode histogram
attr title "transmitting packet byte length"
attr unit bytes
bin	-inf	0
bin	4095	0
bin	4096	28506
bin	4097	0
scalar Net10.rte[0].queue[0] busy:timeavg 0.77840384000007
attr interpolationmode sample-hold
attr recordingmode timeavg
attr title "server busy state, timeavg"
scalar Net10.rte[0].queue[0] qlen:timeavg 0.91680792739407
attr interpolationmode sample-hold
attr recordingmode timeavg
attr title "queue length, timeavg"
scalar Net10.rte[0].queue[0] qlen:max 17
attr interpolationmode sample-hold
attr recordingmode max
attr title "queue length, max"
scalar Net10.rte[0].queue[0] drop:count 0
attr interpolationmode none
attr recordingmode count
attr title "dropped packet byte length, count"
attr unit bytes
scalar Net10.rte[0].queue[0] drop:sum 0
attr interpolationmode none
attr recordingmode sum
attr title "dropped packet byte length, sum"
attr unit bytes
par Net10.rte[0].queue[1] typename "\"node.L2Queue\""
par Net10.rte[0].queue[1] frameCapacity 100
par Net10.rte[0].queue[1] useCutThroughSwitching true
scalar Net10.rte[0].queue[1] rxBytes:count 0
attr interpolationmode none
attr recordingmode count
attr title "received packet byte length, count"
attr unit bytes
scalar Net10.rte[0].queue[1] rxBytes:sum 0
attr interpolationmode none
attr recordingmode sum
attr title "received packet byte length, sum"
attr unit bytes
statistic Net10.rte[0].queue[1] rxBytes:histogram
field count 0
field mean -nan
field stddev -nan
field min -nan
field max -nan
field sum 0
field sqrsum 0
attr interpolationmode none
attr recordingmode histogram
attr title "received packet byte length"
attr unit bytes
bin	-inf	0
bin	0	0
bin	1	0
scalar Net10.rte[0].queue[1] txBytes:count 0
attr interpolationmode none
attr recordingmode count
attr title "transmitting packet byte length, count"
attr unit bytes
scalar Net10.rte[0].queue[1] txBytes:sum 0
attr interpolationmode none
attr recordingmode sum
attr title "transmitting packet byte length, sum"
attr unit bytes
statistic Net10.rte[0].queue[1] txBytes:histogram
field count 0
field mean -nan
field stddev -nan
field min -nan
field max -nan
field sum 0
field sqrsum 0
attr interpolationmode none
attr recordingmode histogram
attr title "transmitting packet byte length"
attr unit bytes
bin	-inf	0
bin	0	0
bin	1	0
scalar Net10.rte[0].queue[1] busy:timeavg 0
attr interpolationmode sample-hold
attr recordingmode timeavg
attr title "server busy state, timeavg"
scalar Net10.rte[0].queue[1] qlen:timeavg 0
attr interpolationmode sample-hold
attr recordingmode timeavg
attr title "queue length, timeavg"
scalar Net10.rte[0].queue[1] qlen:max 0
attr interpolationmode sample-hold
attr recordingmode max
attr title "queue length, max"
scalar Net10.rte[0].queue[1] drop:count 0
attr interpolationmode none
attr recordingmode count
attr title "dropped packet byte length, count"
attr unit bytes
scalar Net10.rte[0].queue[1] drop:sum 0
attr interpolationmode none
attr recordingmode sum
attr title "dropped packet byte length, sum"
attr unit bytes
par Net10.rte[0].queue[2] typename "\"node.L2Queue\""
par Net10.rte[0].queue[2] frameCapacity 100
par Net10.rte[0].queue[2] useCutThroughSwitching true
scalar Net10.rte[0].queue[2] rxBytes:count 22866
attr interpolationmode none
attr recordingmode count
attr title "received packet byte length, count"
attr unit bytes
scalar Net10.rte[0].queue[2] rxBytes:sum 93659136
attr interpolationmode none
attr recordingmode sum
attr title "received packet byte length, sum"
attr unit bytes
statistic Net10.rte[0].queue[2] rxBytes:histogram
field count 22866
field mean 4096
field stddev 0
field min 4096
field max 4096
field sum 93659136
field sqrsum 383627821056
attr interpolationmode none
attr recordingmode histogram
attr title "received packet byte length"
attr unit bytes
bin	-inf	0
bin	4095	0
bin	4096	22866
bin	4097	0
scalar Net10.rte[0].queue[2] txBytes:count 0
attr interpolationmode none
attr recordingmode count
attr title "transmitting packet byte length, count"
attr unit bytes
scalar Net10.rte[0].queue[2] txBytes:sum 0
attr interpolationmode none
attr recordingmode sum
attr title "transmitting packet byte length, sum"
attr unit bytes
statistic Net10.rte[0].queue[2] txBytes:histogram
field count 0
field mean -nan
field stddev -nan
field min -nan
field max -nan
field sum 0
field sqrsum 0
attr interpolationmode none
attr recordingmode histogram
attr title "transmitting packet byte length"
attr unit bytes
bin	-inf	0
bin	0	0
bin	1	0
scalar Net10.rte[0].queue[2] busy:timeavg 0
attr interpolationmode sample-hold
attr recordingmode timeavg
attr title "server busy state, timeavg"
scalar Net10.rte[0].queue[2] qlen:timeavg 0
attr interpolationmode sample-hold
attr recordingmode timeavg
attr title "queue length, timeavg"
scalar Net10.rte[0].queue[2] qlen:max 0
attr interpolationmode sample-hold
attr recordingmode max
attr title "queue length, max"
scalar Net10.rte[0].queue[2] drop:count 0
attr interpolationmode none
attr recordingmode count
attr title "dropped packet byte length, count"
attr unit bytes
scalar Net10.rte[0].queue[2] drop:sum 0
attr interpolationmode none
attr recordingmode sum
attr title "dropped packet byte length, sum"
attr unit bytes
par Net10.rte[0] typename "\"node.Node\""
par Net10.rte[0] address 0
par Net10.rte[0] appType "\"App\""
par Net10.rte[1].app typename "\"node.App\""
par Net10.rte[1].app address 1
par Net10.rte[1].app destAddresses "\"1\""
par Net10.rte[1].app sendIaTime exponential(210ms)
attr unit s
par Net10.rte[1].app packetLength 4096byte
attr unit byte
scalar Net10.rte[1].app hopCount:mean 1.9978190319992
attr interpolationmode none
attr recordingmode mean
attr title "hop count of arrived packets, mean"
scalar Net10.rte[1].app hopCount:max 4
attr interpolationmode none
attr recordingmode max
attr title "hop count of arrived packets, max"
scalar Net10.rte[1].app endToEndDelay:mean 0.035250647846334
attr interpolationmode none
attr recordingmode mean
attr title "end-to-end delay of arrived packets, mean"
attr unit s
scalar Net10.rte[1].app endToEndDelay:max 0.677436037239
attr interpolationmode none
attr recordingmode max
attr title "end-to-end delay of arrived packets, max"
attr unit s
par Net10.rte[1].routing typename "\"node.Routing\""
statistic Net10.rte[1].routing outputIf:histogram
field count 57314
field mean -1
field stddev 0
field min -1
field max -1
field sum -57314
field sqrsum 57314
attr interpolationmode none
attr recordingmode histogram
attr title "output interface for each routed packet"
bin	-inf	0
bin	-2	0
bin	-1	57314
bin	0	0
scalar Net10.rte[1].routing drop:count 0
attr interpolationmode none
attr recordingmode count
attr title "dropped packet byte length, count"
attr unit bytes
scalar Net10.rte[1].routing drop:sum 0
attr interpolationmode none
attr recordingmode sum
attr title "dropped packet byte length, sum"
attr unit bytes
par Net10.rte[1].queue[0] typename "\"node.L2Queue\""
par Net10.rte[1].queue[0] frameCapacity 100
par Net10.rte[1].queue[0] useCutThroughSwitching true
scalar Net10.rte[1].queue[0] rxBytes:count 28506
attr interpolationmode none
attr recordingmode count
attr title "received packet byte length, count"
attr unit bytes
scalar Net10.rte[1].queue[0] rxBytes:sum 116760576
attr interpolationmode none
attr recordingmode sum
attr title "received packet byte length, sum"
attr unit bytes
statistic Net10.rte[1].queue[0] rxBytes:histogram
field count 28506
field mean 4096
field stddev 0
field min 4096
field max 4096
field sum 116760576
field sqrsum 478251319296
attr interpolationmode none
attr recordingmode histogram
attr title "received packet byte length"
attr unit bytes
bin	-inf	0
bin	4095	0
bin	4096	28506
bin	4097	0
scalar Net10.rte[1].queue[0] txBytes:count 0
attr interpolationmode none
attr recordingmode count
attr title "transmitting packet byte length, count"
attr unit bytes
scalar Net10.rte[1].queue[0] txBytes:sum 0
attr interpolationmode none
attr recordingmode sum
attr title "transmitting packet byte length, sum"
attr unit bytes
statistic Net10.rte[1].queue[0] txBytes:histogram
field count 0
field mean -nan
field stddev -nan
field min -nan
field max -nan
field sum 0
field sqrsum 0
attr interpolationmode none
attr recordingmode histogram
attr title "transmitting packet byte length"
attr unit bytes
bin	-inf	0
bin	0	0
bin	1	0
scalar Net10.rte[1].queue[0] busy:timeavg 0
attr interpolationmode sample-hold
attr recordingmode timeavg
attr title "server busy state, timeavg"
scalar Net10.rte[1].queue[0] qlen:timeavg 0
attr interpolationmode sample-hold
attr recordingmode timeavg
attr title "queue length, timeavg"
scalar Net10.rte[1].queue[0] qlen:max 0
attr interpolationmode sample-hold
attr recordingmode max
attr title "queue length, max"
scalar Net10.rte[1].queue[0] drop:count 0
attr interpolationmode none
attr recordingmode count
attr title "dropped packet byte length, count"
attr unit bytes
scalar Net10.rte[1].queue[0] drop:sum 0
attr interpolationmode none
attr recordingmode sum
attr title "dropped packet byte length, sum"
attr unit bytes
par Net10.rte[1].queue[1] typename "\"node.L2Queue\""
par Net10.rte[1].queue[1] frameCapacity 100
par Net10.rte[1].queue[1] useCutThroughSwitching true
scalar Net10.rte[1].queue[1] rxBytes:count 5769
attr interpolationmode none
attr recordingmode count
attr title "received packet byte length, count"
attr unit bytes
scalar Net10.rte[1].queue[1] rxBytes:sum 23629824
attr interpolationmode none
attr recordingmode sum
attr title "received packet byte length, sum"
attr unit bytes
statistic Net10.rte[1].queue[1] rxBytes:histogram
field count 5769
field mean 4096
field stddev 0
field min 4096
field max 4096
field sum 23629824
field sqrsum 96787759104
attr interpolationmode none
attr recordingmode histogram
attr title "received packet byte length"
attr unit bytes
bin	-inf	0
bin	4095	0
bin	4096	5769
bin	4097	0
scalar Net10.rte[1].queue[1] txBytes:count 0
attr interpolationmode none
attr recordingmode count
attr title "transmitting packet byte length, count"
attr unit bytes
scalar Net10.rte[1].queue[1] txBytes:sum 0
attr interpolationmode none
attr recordingmode sum
attr title "transmitting packet byte length, sum"
attr unit bytes
statistic Net10.rte[1].queue[1] txBytes:histogram
field count 0
field mean -nan
field stddev -nan
field min -nan
field max -nan
field sum 0
field sqrsum 0
attr interpolationmode none
attr recordingmode histogram
attr title "transmitting packet byte length"
attr unit bytes
bin	-inf	0
bin	0	0
bin	1	0
scalar Net10.rte[1].queue[1] busy:timeavg 0
attr interpolationmode sample-hold
attr recordingmode timeavg
attr title "server busy state, timeavg"
scalar Net10.rte[1].queue[1] qlen:timeavg 0
attr interpolationmode sample-hold
attr recordingmode timeavg
attr title "queue length, timeavg"
scalar Net10.rte[1].queue[1] qlen:max 0
attr interpolationmode sample-hold
attr recordingmode max
attr title "queue length, max"
scalar Net10.rte[1].queue[1] drop:count 0
attr interpolationmode none
attr recordingmode count
attr title "dropped packet byte length, count"
attr unit bytes
scalar Net10.rte[1].queue[1] drop:sum 0
attr interpolationmode none
attr recordingmode sum
attr title "dropped packet byte length, sum"
attr unit bytes
par Net10.rte[1].queue[2] typename "\"node.L2Queue\""
par Net10.rte[1].queue[2] frameCapacity 100
par Net10.rte[1].queue[2] useCutThroughSwitching true
scalar Net10.rte[1].queue[2] rxBytes:count 17263
attr interpolationmode none
attr recordingmode count
attr title "received packet byte length, count"
attr unit bytes
scalar Net10.rte[1].queue[2] rxBytes:sum 70709248
attr interpolationmode none
attr recordingmode sum
attr title "received packet byte length, sum"
attr unit bytes
statistic Net10.rte[1].queue[2] rxBytes:histogram
field count 17263
field mean 4096
field stddev 0
field min 4096
field max 4096
field sum 70709248
field sqrsum 289625079808
attr interpolationmode none
attr recordingmode histogram
attr title "received packet byte length"
attr unit bytes
bin	-inf	0
bin	4095	0
bin	4096	17263
bin	4097	0
scalar Net10.rte[1].queue[2] txBytes:count 0
attr interpolationmode none
attr recordingmode count
attr title "transmitting packet byte length, count"
attr unit bytes
scalar Net10.rte[1].queue[2] txBytes:sum 0
attr interpolationmode none
attr recordingmode sum
attr title "transmitting packet byte length, sum"
attr unit bytes
statistic Net10.rte[1].queue[2] txBytes:histogram
field count 0
field mean -nan
field stddev -nan
field min -nan
field max -nan
field sum 0
field sqrsum 0
attr interpolationmode none
attr recordingmode histogram
attr title "transmitting packet byte length"
attr unit bytes
bin	-inf	0
bin	0	0
bin	1	0
scalar Net10.rte[1].queue[2] busy:timeavg 0
attr interpolationmode sample-hold
attr recordingmode timeavg
attr title "server busy state, timeavg"
scalar Net10.rte[1].queue[2] qlen:timeavg 0
attr interpolationmode sample-hold
attr recordingmode timeavg
attr title "queue length, timeavg"
scalar Net10.rte[1].queue[2] qlen:max 0
attr interpolationmode sample-hold
attr recordingmode max
attr title "queue length, max"
scalar Net10.rte[1].queue[2] drop:count 0
attr interpolationmode none
attr recordingmode count
attr title "dropped packet byte length, count"
attr unit bytes
scalar Net10.rte[1].queue[2] drop:sum 0
attr interpolationmode none
attr recordingmode sum
attr title "dropped packet byte length, sum"
attr unit bytes
par Net10.rte[1] typename "\"node.Node\""
par Net10.rte[1] address 1
par Net10.rte[1] appType "\"App\""
par Net10.rte[2].app typename "\"node.App\""
par Net10.rte[2].app address 2
par Net10.rte[2].app destAddresses "\"1\""
par Net10.rte[2].app sendIaTime exponential(210ms)
attr unit s
par Net10.rte[2].app packetLength 4096byte
attr unit byte
scalar Net10.rte[2].app hopCount:mean -nan
attr interpolationmode none
attr recordingmode mean
attr title "hop count of arrived packets, mean"
scalar Net10.rte[2].app hopCount:max -nan
attr interpolationmode none
attr recordingmode max
attr title "hop count of arrived packets, max"
scalar Net10.rte[2].app endToEndDelay:mean -nan
attr interpolationmode none
attr recordingmode mean
attr title "end-to-end delay of arrived packets, mean"
attr unit s
scalar Net10.rte[2].app endToEndDelay:max -nan
attr interpolationmode none
attr recordingmode max
attr title "end-to-end delay of arrived packets, max"
attr unit s
par Net10.rte[2].routing typename "\"node.Routing\""
statistic Net10.rte[2].routing outputIf:histogram
field count 17263
field mean 4
field stddev 0
field min 4
field max 4
field sum 69052
field sqrsum 276208
attr interpolationmode none
attr recordingmode histogram
attr title "output interface for each routed packet"
bin	-inf	0
bin	3	0
bin	4	17263
bin	5	0
scalar Net10.rte[2].routing drop:count 0
attr interpolationmode none
attr recordingmode count
attr title "dropped packet byte length, count"
attr unit bytes
scalar Net10.rte[2].routing drop:sum 0
attr interpolationmode none
attr recordingmode sum
attr title "dropped packet byte length, sum"
attr unit bytes
par Net10.rte[2].queue[0] typename "\"node.L2Queue\""
par Net10.rte[2].queue[0] frameCapacity 100
par Net10.rte[2].queue[0] useCutThroughSwitching true
scalar Net10.rte[2].queue[0] rxBytes:count 0
attr interpolationmode none
attr recordingmode count
attr title "received packet byte length, count"
attr unit bytes
scalar Net10.rte[2].queue[0] rxBytes:sum 0
attr interpolationmode none
attr recordingmode sum
attr title "received packet byte length, sum"
attr unit bytes
statistic Net10.rte[2].queue[0] rxBytes:histogram
field count 0
field mean -nan
field stddev -nan
field min -nan
field max -nan
field sum 0
field sqrsum 0
attr interpolationmode none
attr recordingmode histogram
attr title "received packet byte length"
attr unit bytes
bin	-inf	0
bin	0	0
bin	1	0
scalar Net10.rte[2].queue[0] txBytes:count 0
attr interpolationmode none
attr recordingmode count
attr title "transmitting packet byte length, count"
attr unit bytes
scalar Net10.rte[2].queue[0] txBytes:sum 0
attr interpolationmode none
attr recordingmode sum
attr title "transmitting packet byte length, sum"
attr unit bytes
statistic Net10.rte[2].queue[0] txBytes:histogram
field count 0
field mean -nan
field stddev -nan
field min -nan
field max -nan
field sum 0
field sqrsum 0
attr interpolationmode none
attr recordingmode histogram
attr title "transmitting packet byte length"
attr unit bytes
bin	-inf	0
bin	0	0
bin	1	0
scalar Net10.rte[2].queue[0] busy:timeavg 0
attr interpolationmode sample-hold
attr recordingmode timeavg
attr title "server busy state, timeavg"
scalar Net10.rte[2].queue[0] qlen:timeavg 0
attr interpolationmode sample-hold
attr recordingmode timeavg
attr title "queue length, timeavg"
scalar Net10.rte[2].queue[0] qlen:max 0
attr interpolationmode sample-hold
attr recordingmode max
attr title "queue length, max"
scalar Net10.rte[2].queue[0] drop:count 0
attr interpolationmode none
attr recordingmode count
attr title "dropped packet byte length, count"
attr unit bytes
scalar Net10.rte[2].queue[0] drop:sum 0
attr interpolationmode none
attr recordingmode sum
attr title "dropped packet byte length, sum"
attr unit bytes
par Net10.rte[2].queue[1] typename "\"node.L2Queue\""
par Net10.rte[2].queue[1] frameCapacity 100
par Net10.rte[2].queue[1] useCutThroughSwitching true
scalar Net10.rte[2].queue[1] rxBytes:count 0
attr interpolationmode none
attr recordingmode count
attr title "received packet byte length, count"
attr unit bytes
scalar Net10.rte[2].queue[1] rxBytes:sum 0
attr interpolationmode none
attr recordingmode sum
attr title "received packet byte length, sum"
attr unit bytes
statistic Net10.rte[2].queue[1] rxBytes:histogram
field count 0
field mean -nan
field stddev -nan
field min -nan
field max -nan
field sum 0
field sqrsum 0
attr interpolationmode none
attr recordingmode histogram
attr title "received packet byte length"
attr unit bytes
bin	-inf	0
bin	0	0
bin	1	0
scalar Net10.rte[2].queue[1] txBytes:count 0
attr interpolationmode none
attr recordingmode count
attr title "transmitting packet byte length, count"
attr unit bytes
scalar Net10.rte[2].queue[1] txBytes:sum 0
attr interpolationmode none
attr recordingmode sum
attr title "transmitting packet byte length, sum"
attr unit bytes
statistic Net10.rte[2].queue[1] txBytes:histogram
field count 0
field mean -nan
field stddev -nan
field min -nan
field max -nan
field sum 0
field sqrsum 0
attr interpolationmode none
attr recordingmode histogram
attr title "transmitting packet byte length"
attr unit bytes
bin	-inf	0
bin	0	0
bin	1	0
scalar Net10.rte[2].queue[1] busy:timeavg 0
attr interpolationmode sample-hold
attr recordingmode timeavg
attr title "server busy state, timeavg"
scalar Net10.rte[2].queue[1] qlen:timeavg 0
attr interpolationmode sample-hold
attr recordingmode timeavg
attr title "queue length, timeavg"
scalar Net10.rte[2].queue[1] qlen:max 0
attr interpolationmode sample-hold
attr recordingmode max
attr title "queue length, max"
scalar Net10.rte[2].queue[1] drop:count 0
attr interpolationmode none
attr recordingmode count
attr title "dropped packet byte length, count"
attr unit bytes
scalar Net10.rte[2].queue[1] drop:sum 0
attr interpolationmode none
attr recordingmode sum
attr title "dropped packet byte length, sum"
attr unit bytes
par Net10.rte[2].queue[2] typename "\"node.L2Queue\""
par Net10.rte[2].queue[2] frameCapacity 100
par Net10.rte[2].queue[2] useCutThroughSwitching true
scalar Net10.rte[2].queue[2] rxBytes:count 0
attr interpolationmode none
attr recordingmode count
attr title "received packet byte length, count"
attr unit bytes
scalar Net10.rte[2].queue[2] rxBytes:sum 0
attr interpolationmode none
attr recordingmode sum
attr title "received packet byte length, sum"
attr unit bytes
statistic Net10.rte[2].queue[2] rxBytes:histogram
field count 0
field mean -nan
field stddev -nan
field min -nan
field max -nan
field sum 0
field sqrsum 0
attr interpolationmode none
attr recordingmode histogram
attr title "received packet byte length"
attr unit bytes
bin	-inf	0
bin	0	0
bin	1	0
scalar Net10.rte[2].queue[2] txBytes:count 0
attr interpolationmode none
attr recordingmode count
attr title "transmitting packet byte length, count"
attr unit bytes
scalar Net10.rte[2].queue[2] txBytes:sum 0
attr interpolationmode none
attr recordingmode sum
attr title "transmitting packet byte length, sum"
attr unit bytes
statistic Net10.rte[2].queue[2] txBytes:histogram
field count 0
field mean -nan
field stddev -nan
field min -nan
field max -nan
field sum 0
field sqrsum 0
attr interpolationmode none
attr recordingmode histogram
attr title "transmitting packet byte length"
attr unit bytes
bin	-inf	0
bin	0	0
bin	1	0
scalar Net10.rte[2].queue[2] busy:timeavg 0
attr interpolationmode sample-hold
attr recordingmode timeavg
attr title "server busy state, timeavg"
scalar Net10.rte[2].queue[2] qlen:timeavg 0
attr interpolationmode sample-hold
attr recordingmode timeavg
attr title "queue length, timeavg"
scalar Net10.rte[2].queue[2] qlen:max 0
attr interpolationmode sample-hold
attr recordingmode max
attr title "queue length, max"
scalar Net10.rte[2].queue[2] drop:count 0
attr interpolationmode none
attr recordingmode count
attr title "dropped packet byte length, count"
attr unit bytes
scalar Net10.rte[2].queue[2] drop:sum 0
attr interpolationmode none
attr recordingmode sum
attr title "dropped packet byte length, sum"
attr unit bytes
par Net10.rte[2].queue[3] typename "\"node.L2Queue\""
par Net10.rte[2].queue[3] frameCapacity 100
par Net10.rte[2].queue[3] useCutThroughSwitching true
scalar Net10.rte[2].queue[3] rxBytes:count 11483
attr interpolationmode none
attr recordingmode count
attr title "received packet byte length, count"
attr unit bytes
scalar Net10.rte[2].queue[3] rxBytes:sum 47034368
attr interpolationmode none
attr recordingmode sum
attr title "received packet byte length, sum"
attr unit bytes
statistic Net10.rte[2].queue[3] rxBytes:histogram
field count 11483
field mean 4096
field stddev 0
field min 4096
field max 4096
field sum 47034368
field sqrsum 192652771328
attr interpolationmode none
attr recordingmode histogram
attr title "received packet byte length"
attr unit bytes
bin	-inf	0
bin	4095	0
bin	4096	11483
bin	4097	0
scalar Net10.rte[2].queue[3] txBytes:count 0
attr interpolationmode none
attr recordingmode count
attr title "transmitting packet byte length, count"
attr unit bytes
scalar Net10.rte[2].queue[3] txBytes:sum 0
attr interpolationmode none
attr recordingmode sum
attr title "transmitting packet byte length, sum"
attr unit bytes
statistic Net10.rte[2].queue[3] txBytes:histogram
field count 0
field mean -nan
field stddev -nan
field min -nan
field max -nan
field sum 0
field sqrsum 0
attr interpolationmode none
attr recordingmode histogram
attr title "transmitting packet byte length"
attr unit bytes
bin	-inf	0
bin	0	0
bin	1	0
scalar Net10.rte[2].queue[3] busy:timeavg 0
attr interpolationmode sample-hold
attr recordingmode timeavg
attr title "server busy state, timeavg"
scalar Net10.rte[2].queue[3] qlen:timeavg 0
attr interpolationmode sample-hold
attr recordingmode timeavg
attr title "queue length, timeavg"
scalar Net10.rte[2].queue[3] qlen:max 0
attr interpolationmode sample-hold
attr recordingmode max
attr title "queue length, max"
scalar Net10.rte[2].queue[3] drop:count 0
attr interpolationmode none
attr recordingmode count
attr title "dropped packet byte length, count"
attr unit bytes
scalar Net10.rte[2].queue[3] drop:sum 0
attr interpolationmode none
attr recordingmode sum
attr title "dropped packet byte length, sum"
attr unit bytes
par Net10.rte[2].queue[4] typename "\"node.L2Queue\""
par Net10.rte[2].queue[4] frameCapacity 100
par Net10.rte[2].queue[4] useCutThroughSwitching true
scalar Net10.rte[2].queue[4] rxBytes:count 0
attr interpolationmode none
attr recordingmode count
attr title "received packet byte length, count"
attr unit bytes
scalar Net10.rte[2].queue[4] rxBytes:sum 0
attr interpolationmode none
attr recordingmode sum
attr title "received packet byte length, sum"
attr unit bytes
statistic Net10.rte[2].queue[4] rxBytes:histogram
field count 0
field mean -nan
field stddev -nan
field min -nan
field max -nan
field sum 0
field sqrsum 0
attr interpolationmode none
attr recordingmode histogram
attr title "received packet byte length"
attr unit bytes
bin	-inf	0
bin	0	0
bin	1	0
scalar Net10.rte[2].queue[4] txBytes:count 17263
attr interpolationmode none
attr recordingmode count
attr title "transmitting packet byte length, count"
attr unit bytes
scalar Net10.rte[2].queue[4] txBytes:sum 70709248
attr interpolationmode none
attr recordingmode sum
attr title "transmitting packet byte length, sum"
attr unit bytes
statistic Net10.rte[2].queue[4] txBytes:histogram
field count 17263
field mean 4096
field stddev 0
field min 4096
field max 4096
field sum 70709248
field sqrsum 289625079808
attr interpolationmode none
attr recordingmode histogram
attr title "transmitting packet byte length"
attr unit bytes
bin	-inf	0
bin	4095	0
bin	4096	17263
bin	4097	0
scalar Net10.rte[2].queue[4] busy:timeavg 0.47139498666662
attr interpolationmode sample-hold
attr recordingmode timeavg
attr title "server busy state, timeavg"
scalar Net10.rte[2].queue[4] qlen:timeavg 0.13202495444816
attr interpolationmode sample-hold
attr recordingmode timeavg
attr title "queue length, timeavg"
scalar Net10.rte[2].queue[4] qlen:max 6
attr interpolationmode sample-hold
attr recordingmode max
attr title "queue length, max"
scalar Net10.rte[2].queue[4] drop:count 0
attr interpolationmode none
attr recordingmode count
attr title "dropped packet byte length, count"
attr unit bytes
scalar Net10.rte[2].queue[4] drop:sum 0
attr interpolationmode none
attr recordingmode sum
attr title "dropped packet byte length, sum"
attr unit bytes
par Net10.rte[2] typename "\"node.Node\""
par Net10.rte[2] address 2
par Net10.rte[2] appType "\"App\""
par Net10.rte[3].app typename "\"node.App\""
par Net10.rte[3].app address 3
par Net10.rte[3].app destAddresses "\"1\""
par Net10.rte[3].app sendIaTime exponential(210ms)
attr unit s
par Net10.rte[3].app packetLength 4096byte
attr unit byte
scalar Net10.rte[3].app hopCount:mean -nan
attr interpolationmode none
attr recordingmode mean
attr title "hop count of arrived packets, mean"
scalar Net10.rte[3].app hopCount:max -nan
attr interpolationmode none
attr recordingmode max
attr title "hop count of arrived packets, max"
scalar Net10.rte[3].app endToEndDelay:mean -nan
attr interpolationmode none
attr recordingmode mean
attr title "end-to-end delay of arrived packets, mean"
attr unit s
scalar Net10.rte[3].app endToEndDelay:max -nan
attr interpolationmode none
attr recordingmode max
attr title "end-to-end delay of arrived packets, max"
attr unit s
par Net10.rte[3].routing typename "\"node.Routing\""
statistic Net10.rte[3].routing outputIf:histogram
field count 5769
field mean 1
field stddev 0
field min 1
field max 1
field sum 5769
field sqrsum 5769
attr interpolationmode none
attr recordingmode histogram
attr title "output interface for each routed packet"
bin	-inf	0
bin	0	0
bin	1	5769
bin	2	0
scalar Net10.rte[3].routing drop:count 0
attr interpolationmode none
attr recordingmode count
attr title "dropped packet byte length, count"
attr unit bytes
scalar Net10.rte[3].routing drop:sum 0
attr interpolationmode none
attr recordingmode sum
attr title "dropped packet byte length, sum"
attr unit bytes
par Net10.rte[3].queue[0] typename "\"node.L2Queue\""
par Net10.rte[3].queue[0] frameCapacity 100
par Net10.rte[3].queue[0] useCutThroughSwitching true
scalar Net10.rte[3].queue[0] rxBytes:count 0
attr interpolationmode none
attr recordingmode count
attr title "received packet byte length, count"
attr unit bytes
scalar Net10.rte[3].queue[0] rxBytes:sum 0
attr interpolationmode none
attr recordingmode sum
attr title "received packet byte length, sum"
attr unit bytes
statistic Net10.rte[3].queue[0] rxBytes:histogram
field count 0
field mean -nan
field stddev -nan
field min -nan
field max -nan
field sum 0
field sqrsum 0
attr interpolationmode none
attr recordingmode histogram
attr title "received packet byte length"
attr unit bytes
bin	-inf	0
bin	0	0
bin	1	0
scalar Net10.rte[3].queue[0] txBytes:count 0
attr interpolationmode none
attr recordingmode count
attr title "transmitting packet byte length, count"
attr unit bytes
scalar Net10.rte[3].queue[0] txBytes:sum 0
attr interpolationmode none
attr recordingmode sum
attr title "transmitting packet byte length, sum"
attr unit bytes
statistic Net10.rte[3].queue[0] txBytes:histogram
field count 0
field mean -nan
field stddev -nan
field min -nan
field max -nan
field sum 0
field sqrsum 0
attr interpolationmode none
attr recordingmode histogram
attr title "transmitting packet byte length"
attr unit bytes
bin	-inf	0
bin	0	0
bin	1	0
scalar Net10.rte[3].queue[0] busy:timeavg 0
attr interpolationmode sample-hold
attr recordingmode timeavg
attr title "server busy state, timeavg"
scalar Net10.rte[3].queue[0] qlen:timeavg 0
attr interpolationmode sample-hold
attr recordingmode timeavg
attr title "queue length, timeavg"
scalar Net10.rte[3].queue[0] qlen:max 0
attr interpolationmode sample-hold
attr recordingmode max
attr title "queue length, max"
scalar Net10.rte[3].queue[0] drop:count 0
attr interpolationmode none
attr recordingmode count
attr title "dropped packet byte length, count"
attr unit bytes
scalar Net10.rte[3].queue[0] drop:sum 0
attr interpolationmode none
attr recordingmode sum
attr title "dropped packet byte length, sum"
attr unit bytes
par Net10.rte[3].queue[1] typename "\"node.L2Queue\""
par Net10.rte[3].queue[1] frameCapacity 100
par Net10.rte[3].queue[1] useCutThroughSwitching true
scalar Net10.rte[3].queue[1] rxBytes:count 0
attr interpolationmode none
attr recordingmode count
attr title "received packet byte length, count"
attr unit bytes
scalar Net10.rte[3].queue[1] rxBytes:sum 0
attr interpolationmode none
attr recordingmode sum
attr title "received packet byte length, sum"
attr unit bytes
statistic Net10.rte[3].queue[1] rxBytes:histogram
field count 0
field mean -nan
field stddev -nan
field min -nan
field max -nan
field sum 0
field sqrsum 0
attr interpolationmode none
attr recordingmode histogram
attr title "received packet byte length"
attr unit bytes
bin	-inf	0
bin	0	0
bin	1	0
scalar Net10.rte[3].queue[1] txBytes:count 5769
attr interpolationmode none
attr recordingmode count
attr title "transmitting packet byte length, count"
attr unit bytes
scalar Net10.rte[3].queue[1] txBytes:sum 23629824
attr interpolationmode none
attr recordingmode sum
attr title "transmitting packet byte length, sum"
attr unit bytes
statistic Net10.rte[3].queue[1] txBytes:histogram
field count 5769
field mean 4096
field stddev 0
field min 4096
field max 4096
field sum 23629824
field sqrsum 96787759104
attr interpolationmode none
attr recordingmode histogram
attr title "transmitting packet byte length"
attr unit bytes
bin	-inf	0
bin	4095	0
bin	4096	5769
bin	4097	0
scalar Net10.rte[3].queue[1] busy:timeavg 0.15753216000001
attr interpolationmode sample-hold
attr recordingmode timeavg
attr title "server busy state, timeavg"
scalar Net10.rte[3].queue[1] qlen:timeavg 0.014488890526519
attr interpolationmode sample-hold
attr recordingmode timeavg
attr title "queue length, timeavg"
scalar Net10.rte[3].queue[1] qlen:max 4
attr interpolationmode sample-hold
attr recordingmode max
attr title "queue length, max"
scalar Net10.rte[3].queue[1] drop:count 0
attr interpolationmode none
attr recordingmode count
attr title "dropped packet byte length, count"
attr unit bytes
scalar Net10.rte[3].queue[1] drop:sum 0
attr interpolationmode none
attr recordingmode sum
attr title "dropped packet byte length, sum"
attr unit bytes
par Net10.rte[3].queue[2] typename "\"node.L2Queue\""
par Net10.rte[3].queue[2] frameCapacity 100
par Net10.rte[3].queue[2] useCutThroughSwitching true
scalar Net10.rte[3].queue[2] rxBytes:count 0
attr interpolationmode none
attr recordingmode count
attr title "received packet byte length, count"
attr unit bytes
scalar Net10.rte[3].queue[2] rxBytes:sum 0
attr interpolationmode none
attr recordingmode sum
attr title "received packet byte length, sum"
attr unit bytes
statistic Net10.rte[3].queue[2] rxBytes:histogram
field count 0
field mean -nan
field stddev -nan
field min -nan
field max -nan
field sum 0
field sqrsum 0
attr interpolationmode none
attr recordingmode histogram
attr title "received packet byte length"
attr unit bytes
bin	-inf	0
bin	0	0
bin	1	0
scalar Net10.rte[3].queue[2] txBytes:count 0
attr interpolationmode none
attr recordingmode count
attr title "transmitting packet byte length, count"
attr unit bytes
scalar Net10.rte[3].queue[2] txBytes:sum 0
attr interpolationmode none
attr recordingmode sum
attr title "transmitting packet byte length, sum"
attr unit bytes
statistic Net10.rte[3].queue[2] txBytes:histogram
field count 0
field mean -nan
field stddev -nan
field min -nan
field max -nan
field sum 0
field sqrsum 0
attr interpolationmode none
attr recordingmode histogram
attr title "transmitting packet byte length"
attr unit bytes
bin	-inf	0
bin	0	0
bin	1	0
scalar Net10.rte[3].queue[2] busy:timeavg 0
attr interpolationmode sample-hold
attr recordingmode timeavg
attr title "server busy state, timeavg"
scalar Net10.rte[3].queue[2] qlen:timeavg 0
attr interpolationmode sample-hold
attr recordingmode timeavg
attr title "queue length, timeavg"
scalar Net10.rte[3].queue[2] qlen:max 0
attr interpolationmode sample-hold
attr recordingmode max
attr title "queue length, max"
scalar Net10.rte[3].queue[2] drop:count 0
attr interpolationmode none
attr recordingmode count
attr title "dropped packet byte length, count"
attr unit bytes
scalar Net10.rte[3].queue[2] drop:sum 0
attr interpolationmode none
attr recordingmode sum
attr title "dropped packet byte length, sum"
attr unit bytes
par Net10.rte[3] typename "\"node.Node\""
par Net10.rte[3] address 3
par Net10.rte[3] appType "\"App\""
par Net10.rte[4].app typename "\"node.App\""
par Net10.rte[4].app address 4
par Net10.rte[4].app destAddresses "\"1\""
par Net10.rte[4].app sendIaTime exponential(210ms)
attr unit s
par Net10.rte[4].app packetLength 4096byte
attr unit byte
scalar Net10.rte[4].app hopCount:mean -nan
attr interpolationmode none
attr recordingmode mean
attr title "hop count of arrived packets, mean"
scalar Net10.rte[4].app hopCount:max -nan
attr interpolationmode none
attr recordingmode max
attr title "hop count of arrived packets, max"
scalar Net10.rte[4].app endToEndDelay:mean -nan
attr interpolationmode none
attr recordingmode mean
attr title "end-to-end delay of arrived packets, mean"
attr unit s
scalar Net10.rte[4].app endToEndDelay:max -nan
attr interpolationmode none
attr recordingmode max
attr title "end-to-end delay of arrived packets, max"
attr unit s
par Net10.rte[4].routing typename "\"node.Routing\""
statistic Net10.rte[4].routing outputIf:histogram
field count 11483
field mean 2
field stddev 0
field min 2
field max 2
field sum 22966
field sqrsum 45932
attr interpolationmode none
attr recordingmode histogram
attr title "output interface for each routed packet"
bin	-inf	0
bin	1	0
bin	2	11483
bin	3	0
scalar Net10.rte[4].routing drop:count 0
attr interpolationmode none
attr recordingmode count
attr title "dropped packet byte length, count"
attr unit bytes
scalar Net10.rte[4].routing drop:sum 0
attr interpolationmode none
attr recordingmode sum
attr title "dropped packet byte length, sum"
attr unit bytes
par Net10.rte[4].queue[0] typename "\"node.L2Queue\""
par Net10.rte[4].queue[0] frameCapacity 100
par Net10.rte[4].queue[0] useCutThroughSwitching true
scalar Net10.rte[4].queue[0] rxBytes:count 5691
attr interpolationmode none
attr recordingmode count
attr title "received packet byte length, count"
attr unit bytes
scalar Net10.rte[4].queue[0] rxBytes:sum 23310336
attr interpolationmode none
attr recordingmode sum
attr title "received packet byte length, sum"
attr unit bytes
statistic Net10.rte[4].queue[0] rxBytes:histogram
field count 5691
field mean 4096
field stddev 0
field min 4096
field max 4096
field sum 23310336
field sqrsum 95479136256
attr interpolationmode none
attr recordingmode histogram
attr title "received packet byte length"
attr unit bytes
bin	-inf	0
bin	4095	0
bin	4096	5691
bin	4097	0
scalar Net10.rte[4].queue[0] txBytes:count 0
attr interpolationmode none
attr recordingmode count
attr title "transmitting packet byte length, count"
attr unit bytes
scalar Net10.rte[4].queue[0] txBytes:sum 0
attr interpolationmode none
attr recordingmode sum
attr title "transmitting packet byte length, sum"
attr unit bytes
statistic Net10.rte[4].queue[0] txBytes:histogram
field count 0
field mean -nan
field stddev -nan
field min -nan
field max -nan
field sum 0
field sqrsum 0
attr interpolationmode none
attr recordingmode histogram
attr title "transmitting packet byte length"
attr unit bytes
bin	-inf	0
bin	0	0
bin	1	0
scalar Net10.rte[4].queue[0] busy:timeavg 0
attr interpolationmode sample-hold
attr recordingmode timeavg
attr title "server busy state, timeavg"
scalar Net10.rte[4].queue[0] qlen:timeavg 0
attr interpolationmode sample-hold
attr recordingmode timeavg
attr title "queue length, timeavg"
scalar Net10.rte[4].queue[0] qlen:max 0
attr interpolationmode sample-hold
attr recordingmode max
attr title "queue length, max"
scalar Net10.rte[4].queue[0] drop:count 0
attr interpolationmode none
attr recordingmode count
attr title "dropped packet byte length, count"
attr unit bytes
scalar Net10.rte[4].queue[0] drop:sum 0
attr interpolationmode none
attr recordingmode sum
attr title "dropped packet byte length, sum"
attr unit bytes
par Net10.rte[4].queue[1] typename "\"node.L2Queue\""
par Net10.rte[4].queue[1] frameCapacity 100
par Net10.rte[4].queue[1] useCutThroughSwitching true
scalar Net10.rte[4].queue[1] rxBytes:count 0
attr interpolationmode none
attr recordingmode count
attr title "received packet byte length, count"
attr unit bytes
scalar Net10.rte[4].queue[1] rxBytes:sum 0
attr interpolationmode none
attr recordingmode sum
attr title "received packet byte length, sum"
attr unit bytes
statistic Net10.rte[4].queue[1] rxBytes:histogram
field count 0
field mean -nan
field stddev -nan
field min -nan
field max -nan
field sum 0
field sqrsum 0
attr interpolationmode none
attr recordingmode histogram
attr title "received packet byte length"
attr unit bytes
bin	-inf	0
bin	0	0
bin	1	0
scalar Net10.rte[4].queue[1] txBytes:count 0
attr interpolationmode none
attr recordingmode count
attr title "transmitting packet byte length, count"
attr unit bytes
scalar Net10.rte[4].queue[1] txBytes:sum 0
attr interpolationmode none
attr recordingmode sum
attr title "transmitting packet byte length, sum"
attr unit bytes
statistic Net10.rte[4].queue[1] txBytes:histogram
field count 0
field mean -nan
field stddev -nan
field min -nan
field max -nan
field sum 0
field sqrsum 0
attr interpolationmode none
attr recordingmode histogram
attr title "transmitting packet byte length"
attr unit bytes
bin	-inf	0
bin	0	0
bin	1	0
scalar Net10.rte[4].queue[1] busy:timeavg 0
attr interpolationmode sample-hold
attr recordingmode timeavg
attr title "server busy state, timeavg"
scalar Net10.rte[4].queue[1] qlen:timeavg 0
attr interpolationmode sample-hold
attr recordingmode timeavg
attr title "queue length, timeavg"
scalar Net10.rte[4].queue[1] qlen:max 0
attr interpolationmode sample-hold
attr recordingmode max
attr title "queue length, max"
scalar Net10.rte[4].queue[1] drop:count 0
attr interpolationmode none
attr recordingmode count
attr title "dropped packet byte length, count"
attr unit bytes
scalar Net10.rte[4].queue[1] drop:sum 0
attr interpolationmode none
attr recordingmode sum
attr title "dropped packet byte length, sum"
attr unit bytes
par Net10.rte[4].queue[2] typename "\"node.L2Queue\""
par Net10.rte[4].queue[2] frameCapacity 100
par Net10.rte[4].queue[2] useCutThroughSwitching true
scalar Net10.rte[4].queue[2] rxBytes:count 0
attr interpolationmode none
attr recordingmode count
attr title "received packet byte length, count"
attr unit bytes
scalar Net10.rte[4].queue[2] rxBytes:sum 0
attr interpolationmode none
attr recordingmode sum
attr title "received packet byte length, sum"
attr unit bytes
statistic Net10.rte[4].queue[2] rxBytes:histogram
field count 0
field mean -nan
field stddev -nan
field min -nan
field max -nan
field sum 0
field sqrsum 0
attr interpolationmode none
attr recordingmode histogram
attr title "received packet byte length"
attr unit bytes
bin	-inf	0
bin	0	0
bin	1	0
scalar Net10.rte[4].queue[2] txBytes:count 11483
attr interpolationmode none
attr recordingmode count
attr title "transmitting packet byte length, count"
attr unit bytes
scalar Net10.rte[4].queue[2] txBytes:sum 47034368
attr interpolationmode none
attr recordingmode sum
attr title "transmitting packet byte length, sum"
attr unit bytes
statistic Net10.rte[4].queue[2] txBytes:histogram
field count 11483
field mean 4096
field stddev 0
field min 4096
field max 4096
field sum 47034368
field sqrsum 192652771328
attr interpolationmode none
attr recordingmode histogram
attr title "transmitting packet byte length"
attr unit bytes
bin	-inf	0
bin	4095	0
bin	4096	11483
bin	4097	0
scalar Net10.rte[4].queue[2] busy:timeavg 0.31356245333331
attr interpolationmode sample-hold
attr recordingmode timeavg
attr title "server busy state, timeavg"
scalar Net10.rte[4].queue[2] qlen:timeavg 0.059684820832099
attr interpolationmode sample-hold
attr recordingmode timeavg
attr title "queue length, timeavg"
scalar Net10.rte[4].queue[2] qlen:max 4
attr interpolationmode sample-hold
attr recordingmode max
attr title "queue length, max"
scalar Net10.rte[4].queue[2] drop:count 0
attr interpolationmode none
attr recordingmode count
attr title "dropped packet byte length, count"
attr unit bytes
scalar Net10.rte[4].queue[2] drop:sum 0
attr interpolationmode none
attr recordingmode sum
attr title "dropped packet byte length, sum"
attr unit bytes
par Net10.rte[4].queue[3] typename "\"node.L2Queue\""
par Net10.rte[4].queue[3] frameCapacity 100
par Net10.rte[4].queue[3] useCutThroughSwitching true
scalar Net10.rte[4].queue[3] rxBytes:count 0
attr interpolationmode none
attr recordingmode count
attr title "received packet byte length, count"
attr unit bytes
scalar Net10.rte[4].queue[3] rxBytes:sum 0
attr interpolationmode none
attr recordingmode sum
attr title "received packet byte length, sum"
attr unit bytes
statistic Net10.rte[4].queue[3] rxBytes:histogram
field count 0
field mean -nan
field stddev -nan
field min -nan
field max -nan
field sum 0
field sqrsum 0
attr interpolationmode none
attr recordingmode histogram
attr title "received packet byte length"
attr unit bytes
bin	-inf	0
bin	0	0
bin	1	0
scalar Net10.rte[4].queue[3] txBytes:count 0
attr interpolationmode none
attr recordingmode count
attr title "transmitting packet byte length, count"
attr unit bytes
scalar Net10.rte[4].queue[3] txBytes:sum 0
attr interpolationmode none
attr recordingmode sum
attr title "transmitting packet byte length, sum"
attr unit bytes
statistic Net10.rte[4].queue[3] txBytes:histogram
field count 0
field mean -nan
field stddev -nan
field min -nan
field max -nan
field sum 0
field sqrsum 0
attr interpolationmode none
attr recordingmode histogram
attr title "transmitting packet byte length"
attr unit bytes
bin	-inf	0
bin	0	0
bin	1	0
scalar Net10.rte[4].queue[3] busy:timeavg 0
attr interpolationmode sample-hold
attr recordingmode timeavg
attr title "server busy state, timeavg"
scalar Net10.rte[4].queue[3] qlen:timeavg 0
attr interpolationmode sample-hold
attr recordingmode timeavg
attr title "queue length, timeavg"
scalar Net10.rte[4].queue[3] qlen:max 0
attr interpolationmode sample-hold
attr recordingmode max
attr title "queue length, max"
scalar Net10.rte[4].queue[3] drop:count 0
attr interpolationmode none
attr recordingmode count
attr title "dropped packet byte length, count"
attr unit bytes
scalar Net10.rte[4].queue[3] drop:sum 0
attr interpolationmode none
attr recordingmode sum
attr title "dropped packet byte length, sum"
attr unit bytes
par Net10.rte[4] typename "\"node.Node\""
par Net10.rte[4] address 4
par Net10.rte[4] appType "\"App\""
par Net10.rte[5].app typename "\"node.App\""
par Net10.rte[5].app address 5
par Net10.rte[5].app destAddresses "\"1\""
par Net10.rte[5].app sendIaTime exponential(210ms)
attr unit s
par Net10.rte[5].app packetLength 4096byte
attr unit byte
scalar Net10.rte[5].app hopCount:mean -nan
attr interpolationmode none
attr recordingmode mean
attr title "hop count of arrived packets, mean"
scalar Net10.rte[5].app hopCount:max -nan
attr interpolationmode none
attr recordingmode max
attr title "hop count of arrived packets, max"
scalar Net10.rte[5].app endToEndDelay:mean -nan
attr interpolationmode none
attr recordingmode mean
attr title "end-to-end delay of arrived packets, mean"
attr unit s
scalar Net10.rte[5].app endToEndDelay:max -nan
attr interpolationmode none
attr recordingmode max
attr title "end-to-end delay of arrived packets, max"
attr unit s
par Net10.rte[5].routing typename "\"node.Routing\""
statistic Net10.rte[5].routing outputIf:histogram
field count 22866
field mean 3
field stddev 0
field min 3
field max 3
field sum 68598
field sqrsum 205794
attr interpolationmode none
attr recordingmode histogram
attr title "output interface for each routed packet"
bin	-inf	0
bin	2	0
bin	3	22866
bin	4	0
scalar Net10.rte[5].routing drop:count 0
attr interpolationmode none
attr recordingmode count
attr title "dropped packet byte length, count"
attr unit bytes
scalar Net10.rte[5].routing drop:sum 0
attr interpolationmode none
attr recordingmode sum
attr title "dropped packet byte length, sum"
attr unit bytes
par Net10.rte[5].queue[0] typename "\"node.L2Queue\""
par Net10.rte[5].queue[0] frameCapacity 100
par Net10.rte[5].queue[0] useCutThroughSwitching true
scalar Net10.rte[5].queue[0] rxBytes:count 0
attr interpolationmode none
attr recordingmode count
attr title "received packet byte length, count"
attr unit bytes
scalar Net10.rte[5].queue[0] rxBytes:sum 0
attr interpolationmode none
attr recordingmode sum
attr title "received packet byte length, sum"
attr unit bytes
statistic Net10.rte[5].queue[0] rxBytes:histogram
field count 0
field mean -nan
field stddev -nan
field min -nan
field max -nan
field sum 0
field sqrsum 0
attr interpolationmode none
attr recordingmode histogram
attr title "received packet byte length"
attr unit bytes
bin	-inf	0
bin	0	0
bin	1	0
scalar Net10.rte[5].queue[0] txBytes:count 0
attr interpolationmode none
attr recordingmode count
attr title "transmitting packet byte length, count"
attr unit bytes
scalar Net10.rte[5].queue[0] txBytes:sum 0
attr interpolationmode none
attr recordingmode sum
attr title "transmitting packet byte length, sum"
attr unit bytes
statistic Net10.rte[5].queue[0] txBytes:histogram
field count 0
field mean -nan
field stddev -nan
field min -nan
field max -nan
field sum 0
field sqrsum 0
attr interpolationmode none
attr recordingmode histogram
attr title "transmitting packet byte length"
attr unit bytes
bin	-inf	0
bin	0	0
bin	1	0
scalar Net10.rte[5].queue[0] busy:timeavg 0
attr interpolationmode sample-hold
attr recordingmode timeavg
attr title "server busy state, timeavg"
scalar Net10.rte[5].queue[0] qlen:timeavg 0
attr interpolationmode sample-hold
attr recordingmode timeavg
attr title "queue length, timeavg"
scalar Net10.rte[5].queue[0] qlen:max 0
attr interpolationmode sample-hold
attr recordingmode max
attr title "queue length, max"
scalar Net10.rte[5].queue[0] drop:count 0
attr interpolationmode none
attr recordingmode count
attr title "dropped packet byte length, count"
attr unit bytes
scalar Net10.rte[5].queue[0] drop:sum 0
attr interpolationmode none
attr recordingmode sum
attr title "dropped packet byte length, sum"
attr unit bytes
par Net10.rte[5].queue[1] typename "\"node.L2Queue\""
par Net10.rte[5].queue[1] frameCapacity 100
par Net10.rte[5].queue[1] useCutThroughSwitching true
scalar Net10.rte[5].queue[1] rxBytes:count 5721
attr interpolationmode none
attr recordingmode count
attr title "received packet byte length, count"
attr unit bytes
scalar Net10.rte[5].queue[1] rxBytes:sum 23433216
attr interpolationmode none
attr recordingmode sum
attr title "received packet byte length, sum"
attr unit bytes
statistic Net10.rte[5].queue[1] rxBytes:histogram
field count 5721
field mean 4096
field stddev 0
field min 4096
field max 4096
field sum 23433216
field sqrsum 95982452736
attr interpolationmode none
attr recordingmode histogram
attr title "received packet byte length"
attr unit bytes
bin	-inf	0
bin	4095	0
bin	4096	5721
bin	4097	0
scalar Net10.rte[5].queue[1] txBytes:count 0
attr interpolationmode none
attr recordingmode count
attr title "transmitting packet byte length, count"
attr unit bytes
scalar Net10.rte[5].queue[1] txBytes:sum 0
attr interpolationmode none
attr recordingmode sum
attr title "transmitting packet byte length, sum"
attr unit bytes
statistic Net10.rte[5].queue[1] txBytes:histogram
field count 0
field mean -nan
field stddev -nan
field min -nan
field max -nan
field sum 0
field sqrsum 0
attr interpolationmode none
attr recordingmode histogram
attr title "transmitting packet byte length"
attr unit bytes
bin	-inf	0
bin	0	0
bin	1	0
scalar Net10.rte[5].queue[1] busy:timeavg 0
attr interpolationmode sample-hold
attr recordingmode timeavg
attr title "server busy state, timeavg"
scalar Net10.rte[5].queue[1] qlen:timeavg 0
attr interpolationmode sample-hold
attr recordingmode timeavg
attr title "queue length, timeavg"
scalar Net10.rte[5].queue[1] qlen:max 0
attr interpolationmode sample-hold
attr recordingmode max
attr title "queue length, max"
scalar Net10.rte[5].queue[1] drop:count 0
attr interpolationmode none
attr recordingmode count
attr title "dropped packet byte length, count"
attr unit bytes
scalar Net10.rte[5].queue[1] drop:sum 0
attr interpolationmode none
attr recordingmode sum
attr title "dropped packet byte length, sum"
attr unit bytes
par Net10.rte[5].queue[2] typename "\"node.L2Queue\""
par Net10.rte[5].queue[2] frameCapacity 100
par Net10.rte[5].queue[2] useCutThroughSwitching true
scalar Net10.rte[5].queue[2] rxBytes:count 11570
attr interpolationmode none
attr recordingmode count
attr title "received packet byte length, count"
attr unit bytes
scalar Net10.rte[5].queue[2] rxBytes:sum 47390720
attr interpolationmode none
attr recordingmode sum
attr title "received packet byte length, sum"
attr unit bytes
statistic Net10.rte[5].queue[2] rxBytes:histogram
field count 11570
field mean 4096
field stddev 0
field min 4096
field max 4096
field sum 47390720
field sqrsum 194112389120
attr interpolationmode none
attr recordingmode histogram
attr title "received packet byte length"
attr unit bytes
bin	-inf	0
bin	4095	0
bin	4096	11570
bin	4097	0
scalar Net10.rte[5].queue[2] txBytes:count 0
attr interpolationmode none
attr recordingmode count
attr title "transmitting packet byte length, count"
attr unit bytes
scalar Net10.rte[5].queue[2] txBytes:sum 0
attr interpolationmode none
attr recordingmode sum
attr title "transmitting packet byte length, sum"
attr unit bytes
statistic Net10.rte[5].queue[2] txBytes:histogram
field count 0
field mean -nan
field stddev -nan
field min -nan
field max -nan
field sum 0
field sqrsum 0
attr interpolationmode none
attr recordingmode histogram
attr title "transmitting packet byte length"
attr unit bytes
bin	-inf	0
bin	0	0
bin	1	0
scalar Net10.rte[5].queue[2] busy:timeavg 0
attr interpolationmode sample-hold
attr recordingmode timeavg
attr title "server busy state, timeavg"
scalar Net10.rte[5].queue[2] qlen:timeavg 0
attr interpolationmode sample-hold
attr recordingmode timeavg
attr title "queue length, timeavg"
scalar Net10.rte[5].queue[2] qlen:max 0
attr interpolationmode sample-hold
attr recordingmode max
attr title "queue length, max"
scalar Net10.rte[5].queue[2] drop:count 0
attr interpolationmode none
attr recordingmode count
attr title "dropped packet byte length, count"
attr unit bytes
scalar Net10.rte[5].queue[2] drop:sum 0
attr interpolationmode none
attr recordingmode sum
attr title "dropped packet byte length, sum"
attr unit bytes
par Net10.rte[5].queue[3] typename "\"node.L2Queue\""
par Net10.rte[5].queue[3] frameCapacity 100
par Net10.rte[5].queue[3] useCutThroughSwitching true
scalar Net10.rte[5].queue[3] rxBytes:count 0
attr interpolationmode none
attr recordingmode count
attr title "received packet byte length, count"
attr unit bytes
scalar Net10.rte[5].queue[3] rxBytes:sum 0
attr interpolationmode none
attr recordingmode sum
attr title "received packet byte length, sum"
attr unit bytes
statistic Net10.rte[5].queue[3] rxBytes:histogram
field count 0
field mean -nan
field stddev -nan
field min -nan
field max -nan
field sum 0
field sqrsum 0
attr interpolationmode none
attr recordingmode histogram
attr title "received packet byte length"
attr unit bytes
bin	-inf	0
bin	0	0
bin	1	0
scalar Net10.rte[5].queue[3] txBytes:count 22866
attr interpolationmode none
attr recordingmode count
attr title "transmitting packet byte length, count"
attr unit bytes
scalar Net10.rte[5].queue[3] txBytes:sum 93659136
attr interpolationmode none
attr recordingmode sum
attr title "transmitting packet byte length, sum"
attr unit bytes
statistic Net10.rte[5].queue[3] txBytes:histogram
field count 22866
field mean 4096
field stddev 0
field min 4096
field max 4096
field sum 93659136
field sqrsum 383627821056
attr interpolationmode none
attr recordingmode histogram
attr title "transmitting packet byte length"
attr unit bytes
bin	-inf	0
bin	4095	0
bin	4096	22866
bin	4097	0
scalar Net10.rte[5].queue[3] busy:timeavg 0.62439424000001
attr interpolationmode sample-hold
attr recordingmode timeavg
attr title "server busy state, timeavg"
scalar Net10.rte[5].queue[3] qlen:timeavg 0.41858862712669
attr interpolationmode sample-hold
attr recordingmode timeavg
attr title "queue length, timeavg"
scalar Net10.rte[5].queue[3] qlen:max 8
attr interpolationmode sample-hold
attr recordingmode max
attr title "queue length, max"
scalar Net10.rte[5].queue[3] drop:count 0
attr interpolationmode none
attr recordingmode count
attr title "dropped packet byte length, count"
attr unit bytes
scalar Net10.rte[5].queue[3] drop:sum 0
attr interpolationmode none
attr recordingmode sum
attr title "dropped packet byte length, sum"
attr unit bytes
par Net10.rte[5] typename "\"node.Node\""
par Net10.rte[5] address 5
par Net10.rte[5] appType "\"App\""
par Net10.rte[6].app typename "\"node.App\""
par Net10.rte[6].app address 6
par Net10.rte[6].app destAddresses "\"1\""
par Net10.rte[6].app sendIaTime exponential(210ms)
attr unit s
par Net10.rte[6].app packetLength 4096byte
attr unit byte
scalar Net10.rte[6].app hopCount:mean -nan
attr interpolationmode none
attr recordingmode mean
attr title "hop count of arrived packets, mean"
scalar Net10.rte[6].app hopCount:max -nan
attr interpolationmode none
attr recordingmode max
attr title "hop count of arrived packets, max"
scalar Net10.rte[6].app endToEndDelay:mean -nan
attr interpolationmode none
attr recordingmode mean
attr title "end-to-end delay of arrived packets, mean"
attr unit s
scalar Net10.rte[6].app endToEndDelay:max -nan
attr interpolationmode none
attr recordingmode max
attr title "end-to-end delay of arrived packets, max"
attr unit s
par Net10.rte[6].routing typename "\"node.Routing\""
statistic Net10.rte[6].routing outputIf:histogram
field count 11570
field mean 4
field stddev 0
field min 4
field max 4
field sum 46280
field sqrsum 185120
attr interpolationmode none
attr recordingmode histogram
attr title "output interface for each routed packet"
bin	-inf	0
bin	3	0
bin	4	11570
bin	5	0
scalar Net10.rte[6].routing drop:count 0
attr interpolationmode none
attr recordingmode count
attr title "dropped packet byte length, count"
attr unit bytes
scalar Net10.rte[6].routing drop:sum 0
attr interpolationmode none
attr recordingmode sum
attr title "dropped packet byte length, sum"
attr unit bytes
par Net10.rte[6].queue[0] typename "\"node.L2Queue\""
par Net10.rte[6].queue[0] frameCapacity 100
par Net10.rte[6].queue[0] useCutThroughSwitching true
scalar Net10.rte[6].queue[0] rxBytes:count 0
attr interpolationmode none
attr recordingmode count
attr title "received packet byte length, count"
attr unit bytes
scalar Net10.rte[6].queue[0] rxBytes:sum 0
attr interpolationmode none
attr recordingmode sum
attr title "received packet byte length, sum"
attr unit bytes
statistic Net10.rte[6].queue[0] rxBytes:histogram
field count 0
field mean -nan
field stddev -nan
field min -nan
field max -nan
field sum 0
field sqrsum 0
attr interpolationmode none
attr recordingmode histogram
attr title "received packet byte length"
attr unit bytes
bin	-inf	0
bin	0	0
bin	1	0
scalar Net10.rte[6].queue[0] txBytes:count 0
attr interpolationmode none
attr recordingmode count
attr title "transmitting packet byte length, count"
attr unit bytes
scalar Net10.rte[6].queue[0] txBytes:sum 0
attr interpolationmode none
attr recordingmode sum
attr title "transmitting packet byte length, sum"
attr unit bytes
statistic Net10.rte[6].queue[0] txBytes:histogram
field count 0
field mean -nan
field stddev -nan
field min -nan
field max -nan
field sum 0
field sqrsum 0
attr interpolationmode none
attr recordingmode histogram
attr title "transmitting packet byte length"
attr unit bytes
bin	-inf	0
bin	0	0
bin	1	0
scalar Net10.rte[6].queue[0] busy:timeavg 0
attr interpolationmode sample-hold
attr recordingmode timeavg
attr title "server busy state, timeavg"
scalar Net10.rte[6].queue[0] qlen:timeavg 0
attr interpolationmode sample-hold
attr recordingmode timeavg
attr title "queue length, timeavg"
scalar Net10.rte[6].queue[0] qlen:max 0
attr interpolationmode sample-hold
attr recordingmode max
attr title "queue length, max"
scalar Net10.rte[6].queue[0] drop:count 0
attr interpolationmode none
attr recordingmode count
attr title "dropped packet byte length, count"
attr unit bytes
scalar Net10.rte[6].queue[0] drop:sum 0
attr interpolationmode none
attr recordingmode sum
attr title "dropped packet byte length, sum"
attr unit bytes
par Net10.rte[6].queue[1] typename "\"node.L2Queue\""
par Net10.rte[6].queue[1] frameCapacity 100
par Net10.rte[6].queue[1] useCutThroughSwitching true
scalar Net10.rte[6].queue[1] rxBytes:count 0
attr interpolationmode none
attr recordingmode count
attr title "received packet byte length, count"
attr unit bytes
scalar Net10.rte[6].queue[1] rxBytes:sum 0
attr interpolationmode none
attr recordingmode sum
attr title "received packet byte length, sum"
attr unit bytes
statistic Net10.rte[6].queue[1] rxBytes:histogram
field count 0
field mean -nan
field stddev -nan
field min -nan
field max -nan
field sum 0
field sqrsum 0
attr interpolationmode none
attr recordingmode histogram
attr title "received packet byte length"
attr unit bytes
bin	-inf	0
bin	0	0
bin	1	0
scalar Net10.rte[6].queue[1] txBytes:count 0
attr interpolationmode none
attr recordingmode count
attr title "transmitting packet byte length, count"
attr unit bytes
scalar Net10.rte[6].queue[1] txBytes:sum 0
attr interpolationmode none
attr recordingmode sum
attr title "transmitting packet byte length, sum"
attr unit bytes
statistic Net10.rte[6].queue[1] txBytes:histogram
field count 0
field mean -nan
field stddev -nan
field min -nan
field max -nan
field sum 0
field sqrsum 0
attr interpolationmode none
attr recordingmode histogram
attr title "transmitting packet byte length"
attr unit bytes
bin	-inf	0
bin	0	0
bin	1	0
scalar Net10.rte[6].queue[1] busy:timeavg 0
attr interpolationmode sample-hold
attr recordingmode timeavg
attr title "server busy state, timeavg"
scalar Net10.rte[6].queue[1] qlen:timeavg 0
attr interpolationmode sample-hold
attr recordingmode timeavg
attr title "queue length, timeavg"
scalar Net10.rte[6].queue[1] qlen:max 0
attr interpolationmode sample-hold
attr recordingmode max
attr title "queue length, max"
scalar Net10.rte[6].queue[1] drop:count 0
attr interpolationmode none
attr recordingmode count
attr title "dropped packet byte length, count"
attr unit bytes
scalar Net10.rte[6].queue[1] drop:sum 0
attr interpolationmode none
attr recordingmode sum
attr title "dropped packet byte length, sum"
attr unit bytes
par Net10.rte[6].queue[2] typename "\"node.L2Queue\""
par Net10.rte[6].queue[2] frameCapacity 100
par Net10.rte[6].queue[2] useCutThroughSwitching true
scalar Net10.rte[6].queue[2] rxBytes:count 5634
attr interpolationmode none
attr recordingmode count
attr title "received packet byte length, count"
attr unit bytes
scalar Net10.rte[6].queue[2] rxBytes:sum 23076864
attr interpolationmode none
attr recordingmode sum
attr title "received packet byte length, sum"
attr unit bytes
statistic Net10.rte[6].queue[2] rxBytes:histogram
field count 5634
field mean 4096
field stddev 0
field min 4096
field max 4096
field sum 23076864
field sqrsum 94522834944
attr interpolationmode none
attr recordingmode histogram
attr title "received packet byte length"
[...]
field count 0
field mean -nan
field stddev -nan
field min -nan
field max -nan
field sum 0
field sqrsum 0
attr interpolationmode none
attr recordingmode histogram
attr title "received packet byte length"
attr unit bytes
bin	-inf	0
bin	0	0
bin	1	0
scalar Net10.rte[7].queue[1] txBytes:count 0
attr interpolationmode none
attr recordingmode count
attr title "transmitting packet byte length, count"
attr unit bytes
scalar Net10.rte[7].queue[1] txBytes:sum 0
attr interpolationmode none
attr recordingmode sum
attr title "transmitting packet byte length, sum"
attr unit bytes
statistic Net10.rte[7].queue[1] txBytes:histogram
field count 0
field mean -nan
field stddev -nan
field min -nan
field max -nan
field sum 0
field sqrsum 0
attr interpolationmode none
attr recordingmode histogram
attr title "transmitting packet byte length"
attr unit bytes
bin	-inf	0
bin	0	0
bin	1	0
scalar Net10.rte[7].queue[1] busy:timeavg 0
attr interpolationmode sample-hold
attr recordingmode timeavg
attr title "server busy state, timeavg"
scalar Net10.rte[7].queue[1] qlen:timeavg 0
attr interpolationmode sample-hold
attr recordingmode timeavg
attr title "queue length, timeavg"
scalar Net10.rte[7].queue[1] qlen:max 0
attr interpolationmode sample-hold
attr recordingmode max
attr title "queue length, max"
scalar Net10.rte[7].queue[1] drop:count 0
attr interpolationmode none
attr recordingmode count
attr title "dropped packet byte length, count"
attr unit bytes
scalar Net10.rte[7].queue[1] drop:sum 0
attr interpolationmode none
attr recordingmode sum
attr title "dropped packet byte length, sum"
attr unit bytes
par Net10.rte[7].queue[2] typename "\"node.L2Queue\""
par Net10.rte[7].queue[2] frameCapacity 100
par Net10.rte[7].queue[2] useCutThroughSwitching true
scalar Net10.rte[7].queue[2] rxBytes:count 0
attr interpolationmode none
attr recordingmode count
attr title "received packet byte length, count"
attr unit bytes
scalar Net10.rte[7].queue[2] rxBytes:sum 0
attr interpolationmode none
attr recordingmode sum
attr title "received packet byte length, sum"
attr unit bytes
statistic Net10.rte[7].queue[2] rxBytes:histogram
field count 0
field mean -nan
field stddev -nan
field min -nan
field max -nan
field sum 0
field sqrsum 0
attr interpolationmode none
attr recordingmode histogram
attr title "received packet byte length"
attr unit bytes
bin	-inf	0
bin	0	0
bin	1	0
scalar Net10.rte[7].queue[2] txBytes:count 0
attr interpolationmode none
attr recordingmode count
attr title "transmitting packet byte length, count"
attr unit bytes
scalar Net10.rte[7].queue[2] txBytes:sum 0
attr interpolationmode none
attr recordingmode sum
attr title "transmitting packet byte length, sum"
attr unit bytes
statistic Net10.rte[7].queue[2] txBytes:histogram
field count 0
field mean -nan
field stddev -nan
field min -nan
field max -nan
field sum 0
field sqrsum 0
attr interpolationmode none
attr recordingmode histogram
attr title "transmitting packet byte length"
attr unit bytes
bin	-inf	0
bin	0	0
bin	1	0
scalar Net10.rte[7].queue[2] busy:timeavg 0
attr interpolationmode sample-hold
attr recordingmode timeavg
attr title "server busy state, timeavg"
scalar Net10.rte[7].queue[2] qlen:timeavg 0
attr interpolationmode sample-hold
attr recordingmode timeavg
attr title "queue length, timeavg"
scalar Net10.rte[7].queue[2] qlen:max 0
attr interpolationmode sample-hold
attr recordingmode max
attr title "queue length, max"
scalar Net10.rte[7].queue[2] drop:count 0
attr interpolationmode none
attr recordingmode count
attr title "dropped packet byte length, count"
attr unit bytes
scalar Net10.rte[7].queue[2] drop:sum 0
attr interpolationmode none
attr recordingmode sum
attr title "dropped packet byte length, sum"
attr unit bytes
par Net10.rte[7] typename "\"node.Node\""
par Net10.rte[7] address 7
par Net10.rte[7] appType "\"App\""
par Net10.rte[8].app typename "\"node.App\""
par Net10.rte[8].app address 8
par Net10.rte[8].app destAddresses "\"1\""
par Net10.rte[8].app sendIaTime exponential(210ms)
attr unit s
par Net10.rte[8].app packetLength 4096byte
attr unit byte
scalar Net10.rte[8].app hopCount:mean -nan
attr interpolationmode none
attr recordingmode mean
attr title "hop count of arrived packets, mean"
scalar Net10.rte[8].app hopCount:max -nan
attr interpolationmode none
attr recordingmode max
attr title "hop count of arrived packets, max"
scalar Net10.rte[8].app endToEndDelay:mean -nan
attr interpolationmode none
attr recordingmode mean
attr title "end-to-end delay of arrived packets, mean"
attr unit s
scalar Net10.rte[8].app endToEndDelay:max -nan
attr interpolationmode none
attr recordingmode max
attr title "end-to-end delay of arrived packets, max"
attr unit s
par Net10.rte[8].routing typename "\"node.Routing\""
statistic Net10.rte[8].routing outputIf:histogram
field count 5691
field mean 1
field stddev 0
field min 1
field max 1
field sum 5691
field sqrsum 5691
attr interpolationmode none
attr recordingmode histogram
attr title "output interface for each routed packet"
bin	-inf	0
bin	0	0
bin	1	5691
bin	2	0
scalar Net10.rte[8].routing drop:count 0
attr interpolationmode none
attr recordingmode count
attr title "dropped packet byte length, count"
attr unit bytes
scalar Net10.rte[8].routing drop:sum 0
attr interpolationmode none
attr recordingmode sum
attr title "dropped packet byte length, sum"
attr unit bytes
par Net10.rte[8].queue[0] typename "\"node.L2Queue\""
par Net10.rte[8].queue[0] frameCapacity 100
par Net10.rte[8].queue[0] useCutThroughSwitching true
scalar Net10.rte[8].queue[0] rxBytes:count 0
attr interpolationmode none
attr recordingmode count
attr title "received packet byte length, count"
attr unit bytes
scalar Net10.rte[8].queue[0] rxBytes:sum 0
attr interpolationmode none
attr recordingmode sum
attr title "received packet byte length, sum"
attr unit bytes
statistic Net10.rte[8].queue[0] rxBytes:histogram
field count 0
field mean -nan
field stddev -nan
field min -nan
field max -nan
field sum 0
field sqrsum 0
attr interpolationmode none
attr recordingmode histogram
attr title "received packet byte length"
attr unit bytes
bin	-inf	0
bin	0	0
bin	1	0
scalar Net10.rte[8].queue[0] txBytes:count 0
attr interpolationmode none
attr recordingmode count
attr title "transmitting packet byte length, count"
attr unit bytes
scalar Net10.rte[8].queue[0] txBytes:sum 0
attr interpolationmode none
attr recordingmode sum
attr title "transmitting packet byte length, sum"
attr unit bytes
statistic Net10.rte[8].queue[0] txBytes:histogram
field count 0
field mean -nan
field stddev -nan
field min -nan
field max -nan
field sum 0
field sqrsum 0
attr interpolationmode none
attr recordingmode histogram
attr title "transmitting packet byte length"
attr unit bytes
bin	-inf	0
bin	0	0
bin	1	0
scalar Net10.rte[8].queue[0] busy:timeavg 0
attr interpolationmode sample-hold
attr recordingmode timeavg
attr title "server busy state, timeavg"
scalar Net10.rte[8].queue[0] qlen:timeavg 0
attr interpolationmode sample-hold
attr recordingmode timeavg
attr title "queue length, timeavg"
scalar Net10.rte[8].queue[0] qlen:max 0
attr interpolationmode sample-hold
attr recordingmode max
attr title "queue length, max"
scalar Net10.rte[8].queue[0] drop:count 0
attr interpolationmode none
attr recordingmode count
attr title "dropped packet byte length, count"
attr unit bytes
scalar Net10.rte[8].queue[0] drop:sum 0
attr interpolationmode none
attr recordingmode sum
attr title "dropped packet byte length, sum"
attr unit bytes
par Net10.rte[8].queue[1] typename "\"node.L2Queue\""
par Net10.rte[8].queue[1] frameCapacity 100
par Net10.rte[8].queue[1] useCutThroughSwitching true
scalar Net10.rte[8].queue[1] rxBytes:count 0
attr interpolationmode none
attr recordingmode count
attr title "received packet byte length, count"
attr unit bytes
scalar Net10.rte[8].queue[1] rxBytes:sum 0
attr interpolationmode none
attr recordingmode sum
attr title "received packet byte length, sum"
attr unit bytes
statistic Net10.rte[8].queue[1] rxBytes:histogram
field count 0
field mean -nan
field stddev -nan
field min -nan
field max -nan
field sum 0
field sqrsum 0
attr interpolationmode none
attr recordingmode histogram
attr title "received packet byte length"
attr unit bytes
bin	-inf	0
bin	0	0
bin	1	0
scalar Net10.rte[8].queue[1] txBytes:count 5691
attr interpolationmode none
attr recordingmode count
attr title "transmitting packet byte length, count"
attr unit bytes
scalar Net10.rte[8].queue[1] txBytes:sum 23310336
attr interpolationmode none
attr recordingmode sum
attr title "transmitting packet byte length, sum"
attr unit bytes
statistic Net10.rte[8].queue[1] txBytes:histogram
field count 5691
field mean 4096
field stddev 0
field min 4096
field max 4096
field sum 23310336
field sqrsum 95479136256
attr interpolationmode none
attr recordingmode histogram
attr title "transmitting packet byte length"
attr unit bytes
bin	-inf	0
bin	4095	0
bin	4096	5691
bin	4097	0
scalar Net10.rte[8].queue[1] busy:timeavg 0.15540224000001
attr interpolationmode sample-hold
attr recordingmode timeavg
attr title "server busy state, timeavg"
scalar Net10.rte[8].queue[1] qlen:timeavg 0.014656771310049
attr interpolationmode sample-hold
attr recordingmode timeavg
attr title "queue length, timeavg"
scalar Net10.rte[8].queue[1] qlen:max 3
attr interpolationmode sample-hold
attr recordingmode max
attr title "queue length, max"
scalar Net10.rte[8].queue[1] drop:count 0
attr interpolationmode none
attr recordingmode count
attr title "dropped packet byte length, count"
attr unit bytes
scalar Net10.rte[8].queue[1] drop:sum 0
attr interpolationmode none
attr recordingmode sum
attr title "dropped packet byte length, sum"
attr unit bytes
par Net10.rte[8].queue[2] typename "\"node.L2Queue\""
par Net10.rte[8].queue[2] frameCapacity 100
par Net10.rte[8].queue[2] useCutThroughSwitching true
scalar Net10.rte[8].queue[2] rxBytes:count 0
attr interpolationmode none
attr recordingmode count
attr title "received packet byte length, count"
attr unit bytes
scalar Net10.rte[8].queue[2] rxBytes:sum 0
attr interpolationmode none
attr recordingmode sum
attr title "received packet byte length, sum"
attr unit bytes
statistic Net10.rte[8].queue[2] rxBytes:histogram
field count 0
field mean -nan
field stddev -nan
field min -nan
field max -nan
field sum 0
field sqrsum 0
attr interpolationmode none
attr recordingmode histogram
attr title "received packet byte length"
attr unit bytes
bin	-inf	0
bin	0	0
bin	1	0
scalar Net10.rte[8].queue[2] txBytes:count 0
attr interpolationmode none
attr recordingmode count
attr title "transmitting packet byte length, count"
attr unit bytes
scalar Net10.rte[8].queue[2] txBytes:sum 0
attr interpolationmode none
attr recordingmode sum
attr title "transmitting packet byte length, sum"
attr unit bytes
statistic Net10.rte[8].queue[2] txBytes:histogram
field count 0
field mean -nan
field stddev -nan
field min -nan
field max -nan
field sum 0
field sqrsum 0
attr interpolationmode none
attr recordingmode histogram
attr title "transmitting packet byte length"
attr unit bytes
bin	-inf	0
bin	0	0
bin	1	0
scalar Net10.rte[8].queue[2] busy:timeavg 0
attr interpolationmode sample-hold
attr recordingmode timeavg
attr title "server busy state, timeavg"
scalar Net10.rte[8].queue[2] qlen:timeavg 0
attr interpolationmode sample-hold
attr recordingmode timeavg
attr title "queue length, timeavg"
scalar Net10.rte[8].queue[2] qlen:max 0
attr interpolationmode sample-hold
attr recordingmode max
attr title "queue length, max"
scalar Net10.rte[8].queue[2] drop:count 0
attr interpolationmode none
attr recordingmode count
attr title "dropped packet byte length, count"
attr unit bytes
scalar Net10.rte[8].queue[2] drop:sum 0
attr interpolationmode none
attr recordingmode sum
attr title "dropped packet byte length, sum"
attr unit bytes
par Net10.rte[8] typename "\"node.Node\""
par Net10.rte[8] address 8
par Net10.rte[8] appType "\"App\""
par Net10.rte[9].app typename "\"node.App\""
par Net10.rte[9].app address 9
par Net10.rte[9].app destAddresses "\"1\""
par Net10.rte[9].app sendIaTime exponential(210ms)
attr unit s
par Net10.rte[9].app packetLength 4096byte
attr unit byte
scalar Net10.rte[9].app hopCount:mean -nan
attr interpolationmode none
attr recordingmode mean
attr title "hop count of arrived packets, mean"
scalar Net10.rte[9].app hopCount:max -nan
attr interpolationmode none
attr recordingmode max
attr title "hop count of arrived packets, max"
scalar Net10.rte[9].app endToEndDelay:mean -nan
attr interpolationmode none
attr recordingmode mean
attr title "end-to-end delay of arrived packets, mean"
attr unit s
scalar Net10.rte[9].app endToEndDelay:max -nan
attr interpolationmode none
attr recordingmode max
attr title "end-to-end delay of arrived packets, max"
attr unit s
par Net10.rte[9].routing typename "\"node.Routing\""
statistic Net10.rte[9].routing outputIf:histogram
field count 5634
field mean 2
field stddev 0
field min 2
field max 2
field sum 11268
field sqrsum 22536
attr interpolationmode none
attr recordingmode histogram
attr title "output interface for each routed packet"
bin	-inf	0
bin	1	0
bin	2	5634
bin	3	0
scalar Net10.rte[9].routing drop:count 0
attr interpolationmode none
attr recordingmode count
attr title "dropped packet byte length, count"
attr unit bytes
scalar Net10.rte[9].routing drop:sum 0
attr interpolationmode none
attr recordingmode sum
attr title "dropped packet byte length, sum"
attr unit bytes
par Net10.rte[9].queue[0] typename "\"node.L2Queue\""
par Net10.rte[9].queue[0] frameCapacity 100
par Net10.rte[9].queue[0] useCutThroughSwitching true
scalar Net10.rte[9].queue[0] rxBytes:count 0
attr interpolationmode none
attr recordingmode count
attr title "received packet byte length, count"
attr unit bytes
scalar Net10.rte[9].queue[0] rxBytes:sum 0
attr interpolationmode none
attr recordingmode sum
attr title "received packet byte length, sum"
attr unit bytes
statistic Net10.rte[9].queue[0] rxBytes:histogram
field count 0
field mean -nan
field stddev -nan
field min -nan
field max -nan
field sum 0
field sqrsum 0
attr interpolationmode none
attr recordingmode histogram
attr title "received packet byte length"
attr unit bytes
bin	-inf	0
bin	0	0
bin	1	0
scalar Net10.rte[9].queue[0] txBytes:count 0
attr interpolationmode none
attr recordingmode count
attr title "transmitting packet byte length, count"
attr unit bytes
scalar Net10.rte[9].queue[0] txBytes:sum 0
attr interpolationmode none
attr recordingmode sum
attr title "transmitting packet byte length, sum"
attr unit bytes
statistic Net10.rte[9].queue[0] txBytes:histogram
field count 0
field mean -nan
field stddev -nan
field min -nan
field max -nan
field sum 0
field sqrsum 0
attr interpolationmode none
attr recordingmode histogram
attr title "transmitting packet byte length"
attr unit bytes
bin	-inf	0
bin	0	0
bin	1	0
scalar Net10.rte[9].queue[0] busy:timeavg 0
attr interpolationmode sample-hold
attr recordingmode timeavg
attr title "server busy state, timeavg"
scalar Net10.rte[9].queue[0] qlen:timeavg 0
attr interpolationmode sample-hold
attr recordingmode timeavg
attr title "queue length, timeavg"
scalar Net10.rte[9].queue[0] qlen:max 0
attr interpolationmode sample-hold
attr recordingmode max
attr title "queue length, max"
scalar Net10.rte[9].queue[0] drop:count 0
attr interpolationmode none
attr recordingmode count
attr title "dropped packet byte length, count"
attr unit bytes
scalar Net10.rte[9].queue[0] drop:sum 0
attr interpolationmode none
attr recordingmode sum
attr title "dropped packet byte length, sum"
attr unit bytes
par Net10.rte[9].queue[1] typename "\"node.L2Queue\""
par Net10.rte[9].queue[1] frameCapacity 100
par Net10.rte[9].queue[1] useCutThroughSwitching true
scalar Net10.rte[9].queue[1] rxBytes:count 0
attr interpolationmode none
attr recordingmode count
attr title "received packet byte length, count"
attr unit bytes
scalar Net10.rte[9].queue[1] rxBytes:sum 0
attr interpolationmode none
attr recordingmode sum
attr title "received packet byte length, sum"
attr unit bytes
statistic Net10.rte[9].queue[1] rxBytes:histogram
field count 0
field mean -nan
field stddev -nan
field min -nan
field max -nan
field sum 0
field sqrsum 0
attr interpolationmode none
attr recordingmode histogram
attr title "received packet byte length"
attr unit bytes
bin	-inf	0
bin	0	0
bin	1	0
scalar Net10.rte[9].queue[1] txBytes:count 0
attr interpolationmode none
attr recordingmode count
attr title "transmitting packet byte length, count"
attr unit bytes
scalar Net10.rte[9].queue[1] txBytes:sum 0
attr interpolationmode none
attr recordingmode sum
attr title "transmitting packet byte length, sum"
attr unit bytes
statistic Net10.rte[9].queue[1] txBytes:histogram
field count 0
field mean -nan
field stddev -nan
field min -nan
field max -nan
field sum 0
field sqrsum 0
attr interpolationmode none
attr recordingmode histogram
attr title "transmitting packet byte length"
attr unit bytes
bin	-inf	0
bin	0	0
bin	1	0
scalar Net10.rte[9].queue[1] busy:timeavg 0
attr interpolationmode sample-hold
attr recordingmode timeavg
attr title "server busy state, timeavg"
scalar Net10.rte[9].queue[1] qlen:timeavg 0
attr interpolationmode sample-hold
attr recordingmode timeavg
attr title "queue length, timeavg"
scalar Net10.rte[9].queue[1] qlen:max 0
attr interpolationmode sample-hold
attr recordingmode max
attr title "queue length, max"
scalar Net10.rte[9].queue[1] drop:count 0
attr interpolationmode none
attr recordingmode count
attr title "dropped packet byte length, count"
attr unit bytes
scalar Net10.rte[9].queue[1] drop:sum 0
attr interpolationmode none
attr recordingmode sum
attr title "dropped packet byte length, sum"
attr unit bytes
par Net10.rte[9].queue[2] typename "\"node.L2Queue\""
par Net10.rte[9].queue[2] frameCapacity 100
par Net10.rte[9].queue[2] useCutThroughSwitching true
scalar Net10.rte[9].queue[2] rxBytes:count 0
attr interpolationmode none
attr recordingmode count
attr title "received packet byte length, count"
attr unit bytes
scalar Net10.rte[9].queue[2] rxBytes:sum 0
attr interpolationmode none
attr recordingmode sum
attr title "received packet byte length, sum"
attr unit bytes
statistic Net10.rte[9].queue[2] rxBytes:histogram
field count 0
field mean -nan
field stddev -nan
field min -nan
field max -nan
field sum 0
field sqrsum 0
attr interpolationmode none
attr recordingmode histogram
attr title "received packet byte length"
attr unit bytes
bin	-inf	0
bin	0	0
bin	1	0
scalar Net10.rte[9].queue[2] txBytes:count 5634
attr interpolationmode none
attr recordingmode count
attr title "transmitting packet byte length, count"
attr unit bytes
scalar Net10.rte[9].queue[2] txBytes:sum 23076864
attr interpolationmode none
attr recordingmode sum
attr title "transmitting packet byte length, sum"
attr unit bytes
statistic Net10.rte[9].queue[2] txBytes:histogram
field count 5634
field mean 4096
field stddev 0
field min 4096
field max 4096
field sum 23076864
field sqrsum 94522834944
attr interpolationmode none
attr recordingmode histogram
attr title "transmitting packet byte length"
attr unit bytes
bin	-inf	0
bin	4095	0
bin	4096	5634
bin	4097	0
scalar Net10.rte[9].queue[2] busy:timeavg 0.15384576000001
attr interpolationmode sample-hold
attr recordingmode timeavg
attr title "server busy state, timeavg"
scalar Net10.rte[9].queue[2] qlen:timeavg 0.013221231325632
attr interpolationmode sample-hold
attr recordingmode timeavg
attr title "queue length, timeavg"
scalar Net10.rte[9].queue[2] qlen:max 3
attr interpolationmode sample-hold
attr recordingmode max
attr title "queue length, max"
scalar Net10.rte[9].queue[2] drop:count 0
attr interpolationmode none
attr recordingmode count
attr title "dropped packet byte length, count"
attr unit bytes
scalar Net10.rte[9].queue[2] drop:sum 0
attr interpolationmode none
attr recordingmode sum
attr title "dropped packet byte length, sum"
attr unit bytes
par Net10.rte[9] typename "\"node.Node\""
par Net10.rte[9] address 9
par Net10.rte[9] appType "\"App\""
par Net10 typename "\"networks.Net10\""

