version 2
run PureAlohaExperiment-33-20090220-15:51:18-31569
attr configname PureAlohaExperiment
attr datetime 20090220-15:51:18
attr experiment PureAlohaExperiment
attr inifile omnetpp.ini
attr iterationvars "$numHosts=20, $mean=3"
attr iterationvars2 "$numHosts=20, $mean=3, $repetition=1"
attr mean 3
attr measurement "$numHosts=20, $mean=3"
attr network Aloha
attr numHosts 20
attr processid 31569
attr repetition 1
attr replication #1
attr resultdir results
attr runnumber 33
attr seedset 33

scalar . 	mean 	3
scalar . 	numHosts 	20
scalar Aloha.server 	duration 	5400.0749906341
scalar Aloha.server 	"total frames" 	34475
scalar Aloha.server 	"collided frames" 	15743
scalar Aloha.server 	"total receive time" 	991.26999999334
scalar Aloha.server 	"total collision time" 	1567.5737917456
scalar Aloha.server 	"channel utilization" 	0.18357021676745
statistic Aloha.server 	"collision multiplicity"
field count 8736
field mean 2.8020833333333
field stddev 1.1720266589202
field sum 24479
field sqrsum 80591
field min 2
field max 12
attr isDiscrete  1
attr unit  packets
bin	-INF	0
bin	-0.5	0
bin	0.5	0
bin	1.5	4797
bin	2.5	2206
bin	3.5	954
bin	4.5	434
bin	5.5	213
bin	6.5	86
bin	7.5	29
bin	8.5	7
bin	9.5	6
bin	10.5	2
bin	11.5	2
bin	12.5	0
bin	13.5	0
bin	14.5	0
bin	15.5	0
statistic Aloha.server 	"collision length"
field count 8736
field mean 0.17943839191227
field stddev 0.065341371022536
field sum 1567.5737917456
field sqrsum 318.57695718529
field min 0.099174370079
field max 0.622533774994
attr unit  s
bin	-INF	0
bin	0	0
bin	0.01828190720996	0
bin	0.03656381441992	0
bin	0.05484572162988	0
bin	0.07312762883984	0
bin	0.0914095360498	658
bin	0.10969144325976	1227
bin	0.12797335046972	1237
bin	0.14625525767968	1198
bin	0.16453716488964	1109
bin	0.1828190720996	1051
bin	0.20110097930956	478
bin	0.21938288651952	423
bin	0.23766479372948	311
bin	0.25594670093944	268
bin	0.2742286081494	201
bin	0.29251051535936	145
bin	0.31079242256932	104
bin	0.32907432977928	83
bin	0.34735623698924	73
bin	0.3656381441992	50
bin	0.38392005140916	28
bin	0.40220195861912	28
bin	0.42048386582908	15
bin	0.43876577303904	19
bin	0.457047680249	8
bin	0.47532958745896	7
bin	0.49361149466892	3
bin	0.51189340187888	5
bin	0.53017530908884	1
bin	0.5484572162988	1
bin	0.56673912350876	3
bin	0.58502103071872	1
bin	0.60330293792868	0
bin	0.62158484513864	1
bin	0.6398667523486	0
bin	0.65814865955856	0
bin	0.67643056676852	0
bin	0.69471247397848	0
bin	0.71299438118844	0
bin	0.7312762883984	0
bin	0.74955819560836	0
bin	0.76784010281832	0
bin	0.78612201002828	0
bin	0.80440391723824	0
bin	0.8226858244482	0
bin	0.84096773165816	0
bin	0.85924963886812	0
bin	0.87753154607808	0
bin	0.89581345328804	0
bin	0.914095360498	0
