version 2
run PureAlohaExperiment-29-20090220-15:51:16-31565
attr configname PureAlohaExperiment
attr datetime 20090220-15:51:16
attr experiment PureAlohaExperiment
attr inifile omnetpp.ini
attr iterationvars "$numHosts=20, $mean=1"
attr iterationvars2 "$numHosts=20, $mean=1, $repetition=1"
attr mean 1
attr measurement "$numHosts=20, $mean=1"
attr network Aloha
attr numHosts 20
attr processid 31565
attr repetition 1
attr replication #1
attr resultdir results
attr runnumber 29
attr seedset 29

scalar . 	mean 	1
scalar . 	numHosts 	20
scalar Aloha.server 	duration 	5400.0071845092
scalar Aloha.server 	"total frames" 	98559
scalar Aloha.server 	"collided frames" 	82410
scalar Aloha.server 	"total receive time" 	241.66916666504
scalar Aloha.server 	"total collision time" 	4348.0856135256
scalar Aloha.server 	"channel utilization" 	0.044756591239783
statistic Aloha.server 	"collision multiplicity"
field count 13711
field mean 7.010210779666
field stddev 5.4897063709018
field sum 96117
field sqrsum 1086977
field min 2
field max 56
attr isDiscrete  1
attr unit  packets
bin	-INF	0
bin	-0.5	0
bin	0.5	0
bin	1.5	2169
bin	2.5	1976
bin	3.5	1626
bin	4.5	1371
bin	5.5	1109
bin	6.5	866
bin	7.5	793
bin	8.5	608
bin	9.5	516
bin	10.5	432
bin	11.5	392
bin	12.5	312
bin	13.5	275
bin	14.5	212
bin	15.5	168
bin	16.5	156
bin	17.5	127
bin	18.5	99
bin	19.5	74
bin	20.5	69
bin	21.5	66
bin	22.5	34
bin	23.5	40
bin	24.5	38
bin	25.5	29
bin	26.5	22
bin	27.5	30
bin	28.5	16
bin	29.5	14
bin	30.5	9
bin	31.5	5
bin	32.5	10
bin	33.5	10
bin	34.5	11
bin	35.5	3
bin	36.5	4
bin	37.5	1
bin	38.5	7
bin	39.5	2
bin	40.5	2
bin	41.5	2
bin	42.5	0
bin	43.5	1
bin	44.5	1
bin	45.5	0
bin	46.5	1
bin	47.5	0
bin	48.5	0
bin	49.5	0
bin	50.5	0
bin	51.5	1
bin	52.5	0
bin	53.5	0
bin	54.5	1
bin	55.5	1
bin	56.5	0
bin	57.5	0
bin	58.5	0
bin	59.5	0
bin	60.5	0
bin	61.5	0
bin	62.5	0
bin	63.5	0
statistic Aloha.server 	"collision length"
field count 13711
field mean 0.31712388691748
field stddev 0.21332153472459
field sum 4348.0856135256
field sqrsum 2002.7701285114
field min 0.099200940819
field max 2.203836005103
attr unit  s
bin	-INF	0
bin	0	0
bin	0.0514486388966	178
bin	0.1028972777932	2605
bin	0.1543459166898	2414
bin	0.2057945555864	1843
bin	0.257243194483	1483
bin	0.3086918333796	1069
bin	0.3601404722762	909
bin	0.4115891111728	664
bin	0.4630377500694	562
bin	0.514486388966	404
bin	0.5659350278626	340
bin	0.6173836667592	267
bin	0.6688323056558	217
bin	0.7202809445524	162
bin	0.771729583449	109
bin	0.8231782223456	92
bin	0.8746268612422	95
bin	0.9260755001388	53
bin	0.9775241390354	54
bin	1.028972777932	39
bin	1.0804214168286	32
bin	1.1318700557252	30
bin	1.1833186946218	26
bin	1.2347673335184	15
bin	1.286215972415	14
bin	1.3376646113116	9
bin	1.3891132502082	7
bin	1.4405618891048	1
bin	1.4920105280014	3
bin	1.543459166898	2
bin	1.5949078057946	4
bin	1.6463564446912	0
bin	1.6978050835878	2
bin	1.7492537224844	3
bin	1.800702361381	1
bin	1.8521510002776	2
bin	1.9035996391742	0
bin	1.9550482780708	0
bin	2.0064969169674	0
bin	2.057945555864	0
bin	2.1093941947606	0
bin	2.1608428336572	1
bin	2.2122914725538	0
bin	2.2637401114504	0
bin	2.315188750347	0
bin	2.3666373892436	0
bin	2.4180860281402	0
bin	2.4695346670368	0
bin	2.5209833059334	0
bin	2.57243194483	0
