version 2
run PureAlohaExperiment-30-20090220-15:51:17-31566
attr configname PureAlohaExperiment
attr datetime 20090220-15:51:17
attr experiment PureAlohaExperiment
attr inifile omnetpp.ini
attr iterationvars "$numHosts=20, $mean=2"
attr iterationvars2 "$numHosts=20, $mean=2, $repetition=0"
attr mean 2
attr measurement "$numHosts=20, $mean=2"
attr network Aloha
attr numHosts 20
attr processid 31566
attr repetition 0
attr replication #0
attr resultdir results
attr runnumber 30
attr seedset 30

scalar . 	mean 	2
scalar . 	numHosts 	20
scalar Aloha.server 	duration 	5400.0036983544
scalar Aloha.server 	"total frames" 	51826
scalar Aloha.server 	"collided frames" 	31343
scalar Aloha.server 	"total receive time" 	779.0533333281
scalar Aloha.server 	"total collision time" 	2584.945937171
scalar Aloha.server 	"channel utilization" 	0.14427170258879
statistic Aloha.server 	"collision multiplicity"
field count 12626
field mean 3.4824172342785
field stddev 1.9078285126665
field sum 43969
field sqrsum 199071
field min 2
field max 19
attr isDiscrete  1
attr unit  packets
bin	-INF	0
bin	-0.5	0
bin	0.5	0
bin	1.5	5066
bin	2.5	3034
bin	3.5	1883
bin	4.5	1021
bin	5.5	660
bin	6.5	390
bin	7.5	239
bin	8.5	115
bin	9.5	88
bin	10.5	63
bin	11.5	29
bin	12.5	18
bin	13.5	8
bin	14.5	5
bin	15.5	4
bin	16.5	0
bin	17.5	2
bin	18.5	1
bin	19.5	0
bin	20.5	0
bin	21.5	0
bin	22.5	0
bin	23.5	0
statistic Aloha.server 	"collision length"
field count 12626
field mean 0.20473197664906
field stddev 0.093829414987569
field sum 2584.945937171
field sqrsum 640.37107509896
field min 0.099170483656
field max 0.924596525831
attr unit  s
bin	-INF	0
bin	0	0
bin	0.02171769171116	0
bin	0.04343538342232	0
bin	0.06515307513348	0
bin	0.08687076684464	777
bin	0.1085884585558	1683
bin	0.13030615026696	1695
bin	0.15202384197812	1642
bin	0.17374153368928	1615
bin	0.19545922540044	1091
bin	0.2171769171116	876
bin	0.23889460882276	700
bin	0.26061230053392	539
bin	0.28232999224508	435
bin	0.30404768395624	325
bin	0.3257653756674	244
bin	0.34748306737856	207
bin	0.36920075908972	160
bin	0.39091845080088	129
bin	0.41263614251204	95
bin	0.4343538342232	79
bin	0.45607152593436	64
bin	0.47778921764552	60
bin	0.49950690935668	41
bin	0.52122460106784	39
bin	0.542942292779	31
bin	0.56465998449016	31
bin	0.58637767620132	12
bin	0.60809536791248	12
bin	0.62981305962364	13
bin	0.6515307513348	7
bin	0.67324844304596	3
bin	0.69496613475712	2
bin	0.71668382646828	8
bin	0.73840151817944	1
bin	0.7601192098906	3
bin	0.78183690160176	2
bin	0.80355459331292	3
bin	0.82527228502408	0
bin	0.84698997673524	0
bin	0.8687076684464	0
bin	0.89042536015756	0
bin	0.91214305186872	2
bin	0.93386074357988	0
bin	0.95557843529104	0
bin	0.9772961270022	0
bin	0.99901381871336	0
bin	1.0207315104245	0
bin	1.0424492021357	0
bin	1.0641668938468	0
bin	1.085884585558	0
