version 2
run Fifo1-0-20170320-10:56:53-10571
attr configname Fifo1
attr datetime 20170320-10:56:53
attr experiment Fifo1
attr inifile omnetpp.ini
attr iterationvars ""
attr iterationvarsf ""
attr measurement ""
attr network FifoNet
attr processid 10571
attr repetition 0
attr replication #0
attr resultdir results
attr runnumber 0
attr seedset 0
param **.fifo.serviceTime 0.01s
param **.gen.sendIaTime exponential(0.2s)

vector 0  FifoNet.fifo  qlen:vector  ETV
attr interpolationmode  sample-hold
attr title  "queue length, vector"
vector 1  FifoNet.fifo  queueingTime:vector  ETV
attr interpolationmode  none
attr title  "queueing time at dequeue, vector"
attr unit  s
vector 2  FifoNet.sink  lifetime:vector  ETV
attr interpolationmode  none
attr title  "lifetime of arrived jobs, vector"
attr unit  s
0	0	0	0
0	132	6.682640977671	1
0	133	6.688555859991	0
0	276	14.403770617499	1
0	277	14.409976903659	0
0	408	20.199118850391	1
0	409	20.201282219108	0
1	2	0	0
1	6	0.159174900913	0
1	10	0.33888697861	0
1	14	0.590073130219	0
1	18	0.961993972634	0
1	22	1.146638598928	0
1	26	1.536947666105	0
1	30	1.694387894101	0
1	34	2.070180704942	0
1	38	2.180390402276	0
1	42	2.375791687555	0
1	46	2.583423547688	0
1	50	2.680449180432	0
1	54	2.795553019809	0
1	58	2.866184847637	0
1	62	3.310889732044	0
1	66	3.322566665863	0
1	70	3.985549121849	0
1	74	4.049220350017	0
1	78	4.145940771007	0
1	82	4.275830040657	0
1	86	4.589609264182	0
1	90	4.924051504247	0
1	94	5.07458632691	0
1	98	5.205362840354	0
1	102	5.373249410934	0
1	106	5.473023812737	0
1	110	5.992674629907	0
1	114	6.354348482762	0
1	118	6.369085553855	0
1	122	6.451401153104	0
1	126	6.469633358329	0
1	130	6.678555859991	0
1	133	6.688555859991	0.00591488232
1	138	6.774490605122	0
1	142	7.13198813781	0
1	146	7.762022123545	0
1	150	8.063178975272	0
1	154	8.093425146005	0
1	158	8.501487997593	0
1	162	8.909666440775	0
1	166	9.678710814603	0
1	170	9.807052649139	0
1	174	10.128100560551	0
1	178	10.45090097553	0
1	182	10.574686867455	0
1	186	10.721679751693	0
1	190	11.024986946491	0
1	194	11.252174734833	0
1	198	11.277349616721	0
1	202	11.532395157166	0
1	206	11.736681532036	0
1	210	11.911145771044	0
1	214	11.942091707144	0
1	218	12.096258638837	0
1	222	12.675142734434	0
1	226	12.959415670453	0
1	230	13.106981128804	0
1	234	13.129370360931	0
1	238	13.236483504977	0
1	242	13.364822445383	0
1	246	13.426278515814	0
1	250	13.46751917222	0
1	254	13.76517013737	0
1	258	14.032228174295	0
1	262	14.154044658932	0
1	266	14.202854357079	0
1	270	14.370921298201	0
1	274	14.399976903659	0
1	277	14.409976903659	0.00620628616
1	282	14.482124779634	0
1	286	14.674400967447	0
1	290	14.706828265336	0
1	294	14.896227600771	0
1	298	14.946515987186	0
1	302	15.13842558266	0
1	306	15.236136992522	0
1	310	15.811719996778	0
1	314	16.277502671621	0
1	318	16.506530462561	0
1	322	16.626079677925	0
1	326	16.715183376935	0
1	330	16.905082293634	0
1	334	17.019988774982	0
1	338	17.485258987321	0
1	342	17.724480547212	0
1	346	17.745392792367	0
1	350	17.75781585046	0
1	354	18.457858587351	0
1	358	18.677641080861	0
1	362	18.889407907159	0
1	366	19.111527396296	0
1	370	19.1490126095	0
1	374	19.196253950717	0
1	378	19.284934756441	0
1	382	19.312540494127	0
1	386	19.590349032085	0
1	390	19.666141424942	0
1	394	19.853353736896	0
1	398	19.943774148941	0
1	402	20.022396660402	0
1	406	20.191282219108	0
1	409	20.201282219108	0.002163368717
1	414	20.314583712552	0
1	418	20.515757913585	0
1	422	21.40665728282	0
1	426	22.045246611231	0
1	430	22.066773632862	0
1	434	22.278338915532	0
1	438	22.325199219287	0
1	442	22.526803068371	0
1	446	22.561985777456	0
1	450	23.634005847505	0
1	454	23.845754390524	0
1	458	24.020137561249	0
1	462	24.078553667902	0
1	466	24.185566603319	0
1	470	24.311154919517	0
1	474	24.439911119838	0
1	478	24.495966521534	0
1	482	24.691339336348	0
1	486	24.725964827577	0
1	490	24.808465073561	0
1	494	24.831856155519	0
2	4	0.01	0.01
2	8	0.169174900913	0.01
2	12	0.34888697861	0.01
2	16	0.600073130219	0.01
2	20	0.971993972634	0.01
2	24	1.156638598928	0.01
2	28	1.546947666105	0.01
2	32	1.704387894101	0.01
2	36	2.080180704942	0.01
2	40	2.190390402276	0.01
2	44	2.385791687555	0.01
2	48	2.593423547688	0.01
2	52	2.690449180432	0.01
2	56	2.805553019809	0.01
2	60	2.876184847637	0.01
2	64	3.320889732044	0.01
2	68	3.332566665863	0.01
2	72	3.995549121849	0.01
2	76	4.059220350017	0.01
2	80	4.155940771007	0.01
2	84	4.285830040657	0.01
2	88	4.599609264182	0.01
2	92	4.934051504247	0.01
2	96	5.08458632691	0.01
2	100	5.215362840354	0.01
2	104	5.383249410934	0.01
2	108	5.483023812737	0.01
2	112	6.002674629907	0.01
2	116	6.364348482762	0.01
2	120	6.379085553855	0.01
2	124	6.461401153104	0.01
2	128	6.479633358329	0.01
2	134	6.688555859991	0.01
2	136	6.698555859991	0.01591488232
2	140	6.784490605122	0.01
2	144	7.14198813781	0.01
2	148	7.772022123545	0.01
2	152	8.073178975272	0.01
2	156	8.103425146005	0.01
2	160	8.511487997593	0.01
2	164	8.919666440775	0.01
2	168	9.688710814603	0.01
2	172	9.817052649139	0.01
2	176	10.138100560551	0.01
2	180	10.46090097553	0.01
2	184	10.584686867455	0.01
2	188	10.731679751693	0.01
2	192	11.034986946491	0.01
2	196	11.262174734833	0.01
2	200	11.287349616721	0.01
2	204	11.542395157166	0.01
2	208	11.746681532036	0.01
2	212	11.921145771044	0.01
2	216	11.952091707144	0.01
2	220	12.106258638837	0.01
2	224	12.685142734434	0.01
2	228	12.969415670453	0.01
2	232	13.116981128804	0.01
2	236	13.139370360931	0.01
2	240	13.246483504977	0.01
2	244	13.374822445383	0.01
2	248	13.436278515814	0.01
2	252	13.47751917222	0.01
2	256	13.77517013737	0.01
2	260	14.042228174295	0.01
2	264	14.164044658932	0.01
2	268	14.212854357079	0.01
2	272	14.380921298201	0.01
2	278	14.409976903659	0.01
2	280	14.419976903659	0.01620628616
2	284	14.492124779634	0.01
2	288	14.684400967447	0.01
2	292	14.716828265336	0.01
2	296	14.906227600771	0.01
2	300	14.956515987186	0.01
2	304	15.14842558266	0.01
2	308	15.246136992522	0.01
2	312	15.821719996778	0.01
2	316	16.287502671621	0.01
2	320	16.516530462561	0.01
2	324	16.636079677925	0.01
2	328	16.725183376935	0.01
2	332	16.915082293634	0.01
2	336	17.029988774982	0.01
2	340	17.495258987321	0.01
2	344	17.734480547212	0.01
2	348	17.755392792367	0.01
2	352	17.76781585046	0.01
2	356	18.467858587351	0.01
2	360	18.687641080861	0.01
2	364	18.899407907159	0.01
2	368	19.121527396296	0.01
2	372	19.1590126095	0.01
2	376	19.206253950717	0.01
2	380	19.294934756441	0.01
2	384	19.322540494127	0.01
2	388	19.600349032085	0.01
2	392	19.676141424942	0.01
2	396	19.863353736896	0.01
2	400	19.953774148941	0.01
2	404	20.032396660402	0.01
2	410	20.201282219108	0.01
2	412	20.211282219108	0.012163368717
2	416	20.324583712552	0.01
2	420	20.525757913585	0.01
2	424	21.41665728282	0.01
2	428	22.055246611231	0.01
2	432	22.076773632862	0.01
2	436	22.288338915532	0.01
2	440	22.335199219287	0.01
2	444	22.536803068371	0.01
2	448	22.571985777456	0.01
2	452	23.644005847505	0.01
2	456	23.855754390524	0.01
2	460	24.030137561249	0.01
2	464	24.088553667902	0.01
2	468	24.195566603319	0.01
2	472	24.321154919517	0.01
2	476	24.449911119838	0.01
2	480	24.505966521534	0.01
2	484	24.701339336348	0.01
2	488	24.735964827577	0.01
2	492	24.818465073561	0.01
2	496	24.841856155519	0.01
