version 2
run Net5SaturatedQueue-0-20170828-16:04:44-6467
attr configname Net5SaturatedQueue
attr datetime 20170828-16:04:44
attr experiment Net5SaturatedQueue
attr inifile omnetpp.ini
attr iterationvars ""
attr iterationvarsf ""
attr measurement ""
attr network networks.Net5
attr processid 6467
attr repetition 0
attr replication #0
attr resultdir results
attr runnumber 0
attr seedset 0
param **.frameCapacity 10
param **.destAddresses "\"1 4\""
param **.sendIaTime "uniform(100ms, 500ms)"
param **.app.packetLength "uniform(50 bytes, 4096 bytes)"
param **.appType "\"App\""
param **.app.packetLength "4096 bytes"

vector 0 Net5.rte[0].queue[0] qlen:vector ETV
attr interpolationmode sample-hold
attr title "queue length, vector"
vector 1 Net5.rte[0].queue[0] busy:vector ETV
attr interpolationmode sample-hold
attr title "server busy state, vector"
vector 2 Net5.rte[0].queue[1] qlen:vector ETV
attr interpolationmode sample-hold
attr title "queue length, vector"
vector 3 Net5.rte[0].queue[1] busy:vector ETV
attr interpolationmode sample-hold
attr title "server busy state, vector"
vector 4 Net5.rte[1].queue[0] qlen:vector ETV
attr interpolationmode sample-hold
attr title "queue length, vector"
vector 5 Net5.rte[1].queue[0] busy:vector ETV
attr interpolationmode sample-hold
attr title "server busy state, vector"
vector 6 Net5.rte[1].queue[1] qlen:vector ETV
attr interpolationmode sample-hold
attr title "queue length, vector"
vector 7 Net5.rte[1].queue[1] busy:vector ETV
attr interpolationmode sample-hold
attr title "server busy state, vector"
vector 8 Net5.rte[1].queue[2] qlen:vector ETV
attr interpolationmode sample-hold
attr title "queue length, vector"
vector 9 Net5.rte[1].queue[2] busy:vector ETV
attr interpolationmode sample-hold
attr title "server busy state, vector"
vector 10 Net5.rte[2].queue[0] qlen:vector ETV
attr interpolationmode sample-hold
attr title "queue length, vector"
vector 11 Net5.rte[2].queue[0] busy:vector ETV
attr interpolationmode sample-hold
attr title "server busy state, vector"
vector 12 Net5.rte[2].queue[1] qlen:vector ETV
attr interpolationmode sample-hold
attr title "queue length, vector"
vector 13 Net5.rte[2].queue[1] busy:vector ETV
attr interpolationmode sample-hold
attr title "server busy state, vector"
vector 14 Net5.rte[2].queue[2] qlen:vector ETV
attr interpolationmode sample-hold
attr title "queue length, vector"
vector 15 Net5.rte[2].queue[2] busy:vector ETV
attr interpolationmode sample-hold
attr title "server busy state, vector"
vector 16 Net5.rte[2].queue[3] qlen:vector ETV
attr interpolationmode sample-hold
attr title "queue length, vector"
vector 17 Net5.rte[2].queue[3] busy:vector ETV
attr interpolationmode sample-hold
attr title "server busy state, vector"
vector 18 Net5.rte[3].queue[0] qlen:vector ETV
attr interpolationmode sample-hold
attr title "queue length, vector"
vector 19 Net5.rte[3].queue[0] busy:vector ETV
attr interpolationmode sample-hold
attr title "server busy state, vector"
vector 20 Net5.rte[3].queue[1] qlen:vector ETV
attr interpolationmode sample-hold
attr title "queue length, vector"
vector 21 Net5.rte[3].queue[1] busy:vector ETV
attr interpolationmode sample-hold
attr title "server busy state, vector"
vector 22 Net5.rte[3].queue[2] qlen:vector ETV
attr interpolationmode sample-hold
attr title "queue length, vector"
vector 23 Net5.rte[3].queue[2] busy:vector ETV
attr interpolationmode sample-hold
attr title "server busy state, vector"
vector 24 Net5.rte[4].queue[0] qlen:vector ETV
attr interpolationmode sample-hold
attr title "queue length, vector"
vector 25 Net5.rte[4].queue[0] busy:vector ETV
attr interpolationmode sample-hold
attr title "server busy state, vector"
vector 26 Net5.rte[4].queue[1] qlen:vector ETV
attr interpolationmode sample-hold
attr title "queue length, vector"
vector 27 Net5.rte[4].queue[1] busy:vector ETV
attr interpolationmode sample-hold
attr title "server busy state, vector"
vector 28 Net5.rte[4].queue[1] txBytes:vector ETV
attr interpolationmode none
attr title "transmitting packet byte length, vector"
attr unit bytes
vector 29 Net5.rte[0].queue[1] txBytes:vector ETV
attr interpolationmode none
attr title "transmitting packet byte length, vector"
attr unit bytes
vector 30 Net5.rte[2].queue[2] txBytes:vector ETV
attr interpolationmode none
attr title "transmitting packet byte length, vector"
attr unit bytes
vector 31 Net5.rte[1].queue[2] txBytes:vector ETV
attr interpolationmode none
attr title "transmitting packet byte length, vector"
attr unit bytes
vector 32 Net5.rte[3].queue[0] txBytes:vector ETV
attr interpolationmode none
attr title "transmitting packet byte length, vector"
attr unit bytes
vector 33 Net5.rte[2].queue[3] txBytes:vector ETV
attr interpolationmode none
attr title "transmitting packet byte length, vector"
attr unit bytes
vector 34 Net5.rte[3].queue[1] txBytes:vector ETV
attr interpolationmode none
attr title "transmitting packet byte length, vector"
attr unit bytes
vector 35 Net5.rte[0].queue[0] txBytes:vector ETV
attr interpolationmode none
attr title "transmitting packet byte length, vector"
attr unit bytes
vector 36 Net5.rte[4].app endToEndDelay:vector ETV
attr interpolationmode none
attr title "end-to-end delay of arrived packets, vector"
attr unit s
vector 37 Net5.rte[4].app hopCount:vector ETV
attr interpolationmode none
attr title "hop count of arrived packets, vector"
vector 38 Net5.rte[4].app sourceAddress:vector ETV
attr interpolationmode none
attr title "source address of arrived packets, vector"
vector 39 Net5.rte[2].queue[0] rxBytes:vector ETV
attr interpolationmode none
attr title "received packet byte length, vector"
attr unit bytes
vector 40 Net5.rte[1].app endToEndDelay:vector ETV
attr interpolationmode none
attr title "end-to-end delay of arrived packets, vector"
attr unit s
vector 41 Net5.rte[1].app hopCount:vector ETV
attr interpolationmode none
attr title "hop count of arrived packets, vector"
vector 42 Net5.rte[1].app sourceAddress:vector ETV
attr interpolationmode none
attr title "source address of arrived packets, vector"
vector 43 Net5.rte[2].queue[2] rxBytes:vector ETV
attr interpolationmode none
attr title "received packet byte length, vector"
attr unit bytes
vector 44 Net5.rte[4].queue[1] rxBytes:vector ETV
attr interpolationmode none
attr title "received packet byte length, vector"
attr unit bytes
vector 45 Net5.rte[2].queue[3] rxBytes:vector ETV
attr interpolationmode none
attr title "received packet byte length, vector"
attr unit bytes
vector 46 Net5.rte[1].queue[2] rxBytes:vector ETV
attr interpolationmode none
attr title "received packet byte length, vector"
attr unit bytes
vector 47 Net5.rte[4].queue[0] rxBytes:vector ETV
attr interpolationmode none
attr title "received packet byte length, vector"
attr unit bytes
vector 48 Net5.rte[1].queue[0] rxBytes:vector ETV
attr interpolationmode none
attr title "received packet byte length, vector"
attr unit bytes
vector 49 Net5.rte[1].queue[1] rxBytes:vector ETV
attr interpolationmode none
attr title "received packet byte length, vector"
attr unit bytes
vector 50 Net5.rte[2].queue[2] drop:vector ETV
attr interpolationmode none
attr title "dropped packet byte length, vector"
attr unit bytes
0	0	0	0
0	202	2.244574775174	1
0	203	2.282165043058	0
0	1318	11.595251983589	1
0	1319	11.627362796885	0
0	1348	11.837399523424	1
0	1365	11.999071733378	0
0	1463	12.737115381284	1
0	1464	12.796900132553	0
0	2151	18.30956172943	1
0	2167	18.45593040208	0
0	3700	30.997559630497	1
0	3721	31.170935749988	0
0	4385	36.472805326244	1
0	4403	36.585886631398	0
0	4413	36.619428772291	1
0	4414	36.630624119174	0
0	5414	45.042653315608	1
0	5422	45.154378909627	0
0	5859	48.934549791183	1
0	5890	49.144042842	2
0	5891	49.157279192498	1
0	5892	49.162102896254	0
0	6313	52.714450448012	1
0	6338	52.848134952882	2
0	6343	52.902965127732	1
0	6367	53.162499306291	0
0	6688	55.6193479606	1
0	6690	55.625981267541	0
0	6943	57.837340389383	1
0	6948	57.896090164218	0
0	9263	76.71224431098	1
0	9285	76.853874897005	0
0	9391	77.758332643662	1
0	9396	77.777668930077	0
0	10810	89.886351489185	1
0	10821	89.975746533053	0
0	11339	94.19819983179	1
0	11355	94.297718337643	0
0	13339	110.761778150875	1
0	13343	110.781486169037	0
0	14019	116.502333696283	1
0	14039	116.657632582386	0
0	14042	116.701552226491	1
0	14073	116.973064975059	0
0	14098	117.147083110179	1
0	14112	117.301455160175	0
0	14396	119.424826195653	1
0	14410	119.493152292323	0
0	14971	123.770621702731	1
0	14987	123.830738035248	0
0	15089	124.671962712987	1
0	15091	124.703586232984	0
0	15122	124.93264290374	1
0	15127	125.036800121856	0
0	15683	130.190852870515	1
0	15703	130.334732901262	0
0	15724	130.505781338459	1
0	15755	130.701996463706	0
0	15773	130.955064838289	1
0	15775	130.990851194508	0
0	15799	131.091732398796	1
0	15802	131.176232750622	0
0	15816	131.292680123172	1
0	15826	131.401906420463	0
0	16245	134.565890498277	1
0	16249	134.602493551135	0
0	16276	134.838579694744	1
0	16289	134.89569907356	0
0	16293	134.969440326471	1
0	16325	135.191552903929	0
0	17417	143.738119993828	1
0	17432	143.814168965836	0
0	17826	146.992687637454	1
0	17840	147.151874146621	0
0	17853	147.246317130236	1
0	17861	147.357118012318	0
0	17864	147.365232855083	1
0	17893	147.551579481384	0
0	17923	147.79267131379	1
0	17924	147.793994240731	0
0	18245	150.175062382409	1
0	18252	150.225534858083	0
0	18479	152.000102722366	1
0	18496	152.183296145537	0
0	19716	162.532375095973	1
0	19733	162.624025986345	0
0	19739	162.662626732143	1
0	19767	162.944471247627	0
0	19936	164.332139216832	1
0	19958	164.48505382085	0
0	19963	164.537513600665	1
0	19981	164.65641564755	2
0	19985	164.682163597861	1
0	19996	164.80001330139	0
0	20182	166.342997315901	1
0	20208	166.501539285843	0
0	20235	166.750824785514	1
0	20244	166.87315363991	0
0	20690	170.662463041398	1
0	20700	170.722304894129	0
0	22169	182.230788580239	1
0	22173	182.289791682752	0
0	22491	184.702179338973	1
0	22517	184.884553455057	0
1	0	0	0
1	33	0.619861760642	1
1	47	0.86085778359	0
1	57	0.964700049627	1
1	58	1.018706615209	0
1	78	1.190871389489	1
1	88	1.292452915645	0
1	180	2.118915774766	1
1	250	2.642429505934	0
1	277	2.843128972873	1
1	299	3.066816411755	0
1	344	3.48480290547	1
1	365	3.721542719221	0
1	377	3.746669813152	1
1	414	4.001285705529	0
1	468	4.493207642249	1
1	502	4.829448168772	0
1	518	4.983416247088	1
1	553	5.343302380258	0
1	620	5.857553590274	1
1	636	6.035841464394	0
1	687	6.507512120715	1
1	698	6.59386587619	0
1	817	7.634446003194	1
1	851	7.863524640392	0
1	871	7.995291691924	1
1	909	8.324816866159	0
1	965	8.771289462688	1
1	969	8.864831482584	0
1	1060	9.522653424552	1
1	1075	9.672755735548	0
1	1300	11.470166803895	1
1	1380	12.092802918127	0
1	1396	12.183185406121	1
1	1405	12.250244346572	0
1	1436	12.538690107966	1
1	1517	13.118669547808	0
1	1523	13.207102147768	1
1	1528	13.252312547677	0
1	1708	14.771218589598	1
1	1727	14.91867259265	0
1	1749	15.081206768656	1
1	1758	15.216648803531	0
1	1814	15.561429039387	1
1	1820	15.61042273636	0
1	1927	16.387311814724	1
1	1955	16.725633154632	0
1	2099	17.786196573264	1
1	2113	17.931664345357	0
1	2127	18.068804530053	1
1	2213	18.801156259129	0
1	2354	20.006258779857	1
1	2374	20.165913915939	0
1	2483	20.958080994152	1
1	2505	21.164932761101	0
1	2517	21.197857112345	1
1	2549	21.538637595344	0
1	2553	21.574171022885	1
1	2593	21.839758476746	0
1	2697	22.709705867433	1
1	2709	22.777899797003	0
1	2752	23.178808510863	1
1	2762	23.224680987759	0
1	2874	24.103826194723	1
1	2875	24.108744480906	0
1	2892	24.373986887094	1
1	2900	24.43953250872	0
1	2931	24.716271668859	1
1	2932	24.73982269308	0
1	2964	24.933427094948	1
1	2984	25.135455158141	0
1	3023	25.389051073883	1
1	3061	25.762367911628	0
1	3187	26.774459892139	1
1	3229	27.130657310672	0
1	3330	28.02679589875	1
1	3344	28.118446270114	0
1	3443	28.90433791168	1
1	3448	29.020106801825	0
1	3518	29.59492673669	1
1	3562	29.95869074935	0
1	3688	30.887850547208	1
1	3737	31.340238293582	0
1	3745	31.358409469108	1
1	3773	31.523266638652	0
1	3780	31.580963680706	1
1	3821	31.955131760291	0
1	3828	32.024564737174	1
1	3889	32.399394893745	0
1	3923	32.675376192852	1
1	3935	32.847799956523	0
1	3941	32.85649460731	1
1	3949	32.923837295041	0
1	4213	35.049662932007	1
1	4246	35.302954670411	0
1	4369	36.291356955001	1
1	4418	36.700142202717	0
1	4488	37.372482442109	1
1	4517	37.596642793124	0
1	4552	37.854501112549	1
1	4585	38.145436656736	0
1	4601	38.271928060333	1
1	4613	38.403397633291	0
1	4633	38.500058573949	1
1	4642	38.617340782919	0
1	4866	40.435664014797	1
1	4873	40.469146193809	0
1	4887	40.566962453164	1
1	4904	40.781475396667	0
1	4917	40.884303509444	1
1	4918	40.903030829909	0
1	5084	42.223885951377	1
1	5086	42.251598602367	0
1	5155	42.786274084914	1
1	5186	43.042403296116	0
1	5246	43.533853555284	1
1	5257	43.655297391024	0
1	5300	44.027227147389	1
1	5316	44.213365362916	0
1	5377	44.645731703006	1
1	5382	44.737571239224	0
1	5401	44.92444903059	1
1	5436	45.234868554654	0
1	5447	45.304562767409	1
1	5486	45.684027462883	0
1	5571	46.530926039537	1
1	5596	46.669678459343	0
1	5681	47.350146765264	1
1	5686	47.367928261463	0
1	5789	48.345818072933	1
1	5835	48.687828127478	0
1	5849	48.817444533765	1
1	5911	49.339728693388	0
1	5939	49.563974814027	1
1	5959	49.770826580976	0
1	6024	50.254728309348	1
1	6033	50.344203284901	0
1	6036	50.372429099031	1
1	6057	50.694198514286	0
1	6082	50.813504702416	1
1	6111	51.084577937019	0
1	6269	52.369675186934	1
1	6284	52.509468013432	0
1	6290	52.531445356092	1
1	6402	53.369540238094	0
1	6436	53.627618509164	1
1	6474	53.978613894235	0
1	6517	54.328111188398	1
1	6566	54.699536377612	0
1	6602	54.983295797282	1
1	6618	55.108712094939	0
1	6637	55.323128337604	1
1	6714	55.866220631076	0
1	6821	56.677679498685	1
1	6846	56.914703059716	0
1	6912	57.629840633371	1
1	6949	57.945745938177	0
1	6970	58.090001887274	1
1	7010	58.456130460599	0
1	7070	59.035381257911	1
1	7078	59.089671570773	0
1	7085	59.137296209954	1
1	7126	59.418300599349	0
1	7149	59.685820052498	1
1	7177	59.874228246263	0
1	7187	60.043365668976	1
1	7205	60.163958262877	0
1	7276	60.7103228977	1
1	7304	61.023106982429	0
1	7320	61.118021744588	1
1	7353	61.483866570633	0
1	7359	61.492735091043	1
1	7363	61.497464212372	0
1	7529	62.769787203805	1
1	7545	62.862667146715	0
1	7666	63.7535007285	1
1	7713	64.136843303464	0
1	7759	64.610688574152	1
1	7799	64.952509463843	0
1	7980	66.511691163672	1
1	8009	66.718448348195	0
1	8073	67.266065678379	1
1	8093	67.376632535061	0
1	8096	67.415484352975	1
1	8117	67.55896589411	0
1	8242	68.438116646844	1
1	8262	68.705879496517	0
1	8284	68.858540133114	1
1	8327	69.238288575868	0
1	8330	69.277502741672	1
1	8353	69.442454493643	0
1	8410	70.130653142936	1
1	8426	70.240557922632	0
1	8482	70.677315147135	1
1	8493	70.781261233956	0
1	8722	72.407825357381	1
1	8726	72.43307886528	0
1	8800	72.95378798424	1
1	8849	73.268558299927	0
1	8943	74.039329463808	1
1	8958	74.220265645872	0
1	9001	74.52602456166	1
1	9023	74.760967309306	0
1	9176	76.02902877741	1
1	9205	76.256026601223	0
1	9229	76.476869344623	1
1	9319	77.148309990976	0
1	9360	77.488530451995	1
1	9410	77.914624283777	0
1	9430	78.018536830418	1
1	9446	78.082474550792	0
1	9475	78.432071507074	1
1	9510	78.741545206872	0
1	9634	79.940645900372	1
1	9642	80.025108007316	0
1	9762	81.060421240985	1
1	9774	81.200214067483	0
1	9835	81.744557519167	1
1	9884	82.108605279107	0
1	10046	83.491668593794	1
1	10066	83.5813327342	0
1	10164	84.385971552882	1
1	10175	84.461921241433	0
1	10229	84.877917200517	1
1	10234	84.929653787861	0
1	10334	85.859626930304	1
1	10351	86.017674165134	0
1	10354	86.075717587121	1
1	10383	86.251735483003	0
1	10407	86.476601916555	1
1	10453	86.810950794546	0
1	10521	87.380744006116	1
1	10533	87.512402743927	0
1	10602	87.9134546008	1
1	10613	88.012955313571	0
1	10648	88.310363227505	1
1	10652	88.413268907633	0
1	10784	89.645937611538	1
1	10822	89.989933897041	0
1	11016	91.520293769708	1
1	11042	91.755047352501	0
1	11169	92.741442455726	1
1	11205	93.075885916144	0
1	11218	93.161115738193	1
1	11258	93.540107521534	0
1	11315	93.959586162588	1
1	11385	94.521500358952	0
1	11410	94.657445752996	1
1	11412	94.736611244051	0
1	11575	96.056961932595	1
1	11588	96.153719754995	0
1	11617	96.394821004107	1
1	11625	96.548044535181	0
1	11766	97.513327170167	1
1	11768	97.523258324959	0
1	11968	99.267585560682	1
1	11994	99.583869195195	0
1	12014	99.728322026136	1
1	12032	99.946996596409	0
1	12207	101.480115456138	1
1	12222	101.571292915369	0
1	12253	101.805076185711	1
1	12294	102.152382856145	0
1	12360	102.706041832458	1
1	12417	103.08418237396	0
1	12512	103.916693748351	1
1	12517	103.993021766608	0
1	12537	104.13698677421	1
1	12538	104.151268720625	0
1	12602	104.570786147289	1
1	12637	104.867018307365	0
1	12640	104.881228994954	1
1	12650	104.984891334495	0
1	12669	105.060492793288	1
1	12671	105.115918095269	0
1	12760	105.859637420722	1
1	12778	106.046721460514	0
1	12803	106.348194550541	1
1	12845	106.672801438593	0
1	12921	107.304989550919	1
1	12963	107.606707491737	0
1	13052	108.336613036789	1
1	13081	108.558219662286	0
1	13316	110.58343056776	1
1	13382	111.159626710539	0
1	13419	111.515070327002	1
1	13423	111.536162208131	0
1	13450	111.749052142169	1
1	13469	111.991183154236	0
1	13484	112.062423318255	1
1	13489	112.151425381675	0
1	13504	112.262240017488	1
1	13520	112.398060382069	0
1	13700	113.866141224562	1
1	13713	113.974911015139	0
1	13784	114.582424902733	1
1	13802	114.785966284752	0
1	13827	115.004491459302	1
1	13865	115.267903517351	0
1	14002	116.315149615708	1
1	14124	117.368608683053	0
1	14278	118.594227141145	1
1	14322	118.92375231538	0
1	14353	119.124091663774	1
1	14414	119.527012801042	0
1	14469	119.946466958526	1
1	14496	120.166181935491	0
1	14547	120.606453780647	1
1	14574	120.782377094102	0
1	14583	120.831033820942	1
1	14611	121.075151063967	0
1	14643	121.299050011117	1
1	14682	121.644559615445	0
1	14752	122.170335360155	1
1	14763	122.252054576728	0
1	14798	122.583096532062	1
1	14830	122.74729162462	0
1	14888	123.162831877176	1
1	14915	123.38037145833	0
1	14946	123.549639063426	1
1	15016	124.077503586218	0
1	15060	124.462779374889	1
1	15128	125.114641458938	0
1	15181	125.455131025708	1
1	15211	125.686006729011	0
1	15232	125.840627274106	1
1	15258	126.153505941261	0
1	15278	126.332291675268	1
1	15324	126.703243952349	0
1	15388	127.39699008139	1
1	15421	127.644606874199	0
1	15465	128.16583137084	1
1	15475	128.29503096556	0
1	15578	129.23407846764	1
1	15593	129.430431585238	0
1	15663	130.045499840754	1
1	15852	131.529119784225	0
1	15875	131.690539204985	1
1	15879	131.7122931631	0
1	16004	132.53122714451	1
1	16052	132.88666790363	0
1	16098	133.270945551623	1
1	16103	133.330154150668	0
1	16133	133.554684734814	1
1	16151	133.634133973148	0
1	16177	133.94755345127	1
1	16197	134.152229822408	0
1	16220	134.297748972666	1
1	16369	135.522875144269	0
1	16372	135.537134074051	1
1	16383	135.613462092308	0
1	16405	135.767374955401	1
1	16426	135.993143207668	0
1	16475	136.335938784297	1
1	16479	136.35608484116	0
1	16532	136.773047326136	1
1	16543	136.82062228671	0
1	16648	137.70979380282	1
1	16690	137.995905643251	0
1	16698	138.072898878068	1
1	16721	138.279372315311	0
1	16730	138.359685913105	1
1	16755	138.631610389547	0
1	16796	138.980352104739	1
1	16817	139.09177020326	0
1	16955	140.209315818832	1
1	16956	140.238541788648	0
1	17102	141.478007449028	1
1	17137	141.806303051717	0
1	17153	141.900867700674	1
1	17179	142.123420150437	0
1	17259	142.664091082387	1
1	17276	142.783075775036	0
1	17299	142.889233811017	1
1	17346	143.270684737449	0
1	17392	143.516234322082	1
1	17443	143.917263810818	0
1	17467	144.031628702771	1
1	17468	144.047707715291	0
1	17524	144.517304822061	1
1	17565	144.748275107791	0
1	17616	145.244476542625	1
1	17646	145.454354947225	0
1	17792	146.814876960686	1
1	17955	148.077552355644	0
1	18049	148.657023530921	1
1	18050	148.721339581001	0
1	18094	149.029032231124	1
1	18120	149.168635892769	0
1	18126	149.221910649167	1
1	18148	149.453259264603	0
1	18170	149.617857271993	1
1	18174	149.633652537233	0
1	18219	150.011494826713	1
1	18296	150.52810404074	0
1	18315	150.730192105566	1
1	18331	150.836313588198	0
1	18351	150.952864848171	1
1	18355	151.003750193676	0
1	18368	151.121300334111	1
1	18391	151.335718695188	0
1	18453	151.836746134516	1
1	18504	152.289701375449	0
1	18587	152.920612741914	1
1	18612	153.105332221042	0
1	18670	153.629645651113	1
1	18686	153.738510024117	0
1	18765	154.396428127028	1
1	18801	154.755179271079	0
1	18826	154.973588508647	1
1	18841	155.142418140108	0
1	18856	155.247841358837	1
1	18860	155.257961678482	0
1	18900	155.560919018183	1
1	18927	155.835870132276	0
1	19038	156.754485221021	1
1	19055	156.853702186513	0
1	19102	157.239138413035	1
1	19108	157.309129408711	0
1	19141	157.641929910426	1
1	19170	157.993492790056	0
1	19229	158.646460389719	1
1	19270	158.85492005792	0
1	19372	159.649807656557	1
1	19396	159.889574107959	0
1	19483	160.642544111052	1
1	19509	160.877013946565	0
1	19577	161.485364253541	1
1	19590	161.590256164628	0
1	19605	161.667323764788	1
1	19611	161.761244114391	0
1	19669	162.289771690781	1
1	19768	162.964995634197	0
1	19872	163.732386991384	1
1	19888	163.930158845381	0
1	19919	164.190807891733	1
1	20040	165.132754278129	0
1	20100	165.629880840054	1
1	20145	165.990901962343	0
1	20175	166.232736029478	1
1	20260	166.957237417147	0
1	20282	167.128995418364	1
1	20286	167.157086399061	0
1	20316	167.489034030868	1
1	20333	167.608397053223	0
1	20337	167.63793496527	1
1	20338	167.646352801236	0
1	20347	167.752132128461	1
1	20362	167.89050621856	0
1	20375	168.031316276456	1
1	20383	168.112846328175	0
1	20400	168.310253176282	1
1	20404	168.334277112636	0
1	20484	168.906622120368	1
1	20524	169.250523823444	0
1	20541	169.384697062059	1
1	20555	169.6103707319	0
1	20605	169.974551478124	1
1	20642	170.330181402097	0
1	20671	170.552529438402	1
1	20747	171.048141353727	0
1	20780	171.374560846019	1
1	20824	171.694249447889	0
1	20840	171.785197744708	1
1	20845	171.826435682701	0
1	21198	174.5921226088	1
1	21208	174.65700615344	0
1	21215	174.692670372785	1
1	21225	174.836624826053	0
1	21259	175.113631988601	1
1	21266	175.191378743257	0
1	21565	177.467179339756	1
1	21577	177.611228375451	0
1	21609	177.82356428672	1
1	21653	178.074586046886	0
1	21848	179.725385471903	1
1	21866	179.898565894987	0
1	21901	180.162785816848	1
1	21908	180.233628054363	0
1	21939	180.451623440072	1
1	21947	180.529464777154	0
1	22005	180.938172136065	1
1	22019	181.106812602673	0
1	22146	182.115949182682	1
1	22213	182.590374634451	0
1	22240	182.785632965252	1
1	22286	183.124332634866	0
1	22320	183.396599706453	1
1	22328	183.493641276133	0
1	22335	183.519023681436	1
1	22370	183.771275013148	0
1	22405	183.974191989102	1
1	22431	184.234009914941	0
1	22472	184.592672086604	1
1	22527	184.947545351165	0
1	22593	185.50940295067	1
1	22640	185.858979599342	0
1	22756	186.718991693577	1
1	22786	187.039436954859	0
1	22800	187.190881114269	1
1	22811	187.258412966853	0
1	22918	188.08535000738	1
1	22961	188.37590722186	0
1	22987	188.668862048353	1
1	23008	188.851311549243	0
1	23055	189.226277693271	1
1	23069	189.360679321454	0
1	23086	189.519008838109	1
1	23097	189.623049507357	0
1	23119	189.859789406418	1
1	23144	190.05935832652	0
1	23160	190.098442238572	1
1	23169	190.277013859971	0
1	23390	191.909441906029	1
1	23394	191.955408965351	0
1	23478	192.590082210769	1
1	23525	192.96103448785	0
1	23550	193.077050242201	1
1	23552	193.098804200316	0
1	23643	193.928592132777	1
1	23677	194.143010493854	0
1	23976	196.668661834207	1
1	23980	196.731748312742	0
1	24300	198.962342769001	1
1	24304	198.985893793222	0
1	24348	199.432965677791	1
1	24360	199.537195511892	0
1	24420	199.931911746227	1
1	24421	199.946477439922	0
2	0	0	0
2	1897	16.196208014803	1
2	1898	16.203398155225	0
2	2275	19.351269489712	1
2	2280	19.378160244664	0
2	2309	19.620752031821	1
2	2323	19.751830995949	0
2	2817	23.622092669644	1
2	2823	23.692744739326	0
2	3297	27.736560252588	1
2	3299	27.758769767845	0
2	3371	28.319279861916	1
2	3397	28.525773230691	0
2	3411	28.611304216273	1
2	3418	28.660477161211	0
2	3548	29.903975529596	1
2	3575	30.0579343306	0
2	4133	34.278013004268	1
2	4150	34.415940670751	0
2	4196	34.870066556985	1
2	4197	34.881513903397	0
2	4762	39.57385205971	1
2	4769	39.607014185019	0
2	4952	41.176780093368	1
2	4972	41.33268616193	0
2	5126	42.527630038466	1
2	5143	42.670628478249	0
2	6160	51.519086585106	1
2	6164	51.555471729853	0
2	7041	58.714306670711	1
2	7042	58.716294193005	0
2	7823	65.178769263351	1
2	7836	65.235009462548	0
2	8550	71.228244318634	1
2	8564	71.320015529665	0
2	8634	71.873978944409	1
2	8642	71.906258703371	0
2	9111	75.530949946777	1
2	9116	75.60123875954	0
2	9140	75.744373032362	1
2	9150	75.79440438209	0
2	9714	80.691037848409	1
2	9715	80.713131890617	0
2	9951	82.714825240433	1
2	9963	82.830147114036	0
2	10902	90.633000556103	1
2	10903	90.634682307783	0
2	11519	95.635457857049	1
2	11530	95.716715083192	0
2	12145	100.98546652757	1
2	12154	101.057090564537	0
2	13006	107.970290223327	1
2	13018	108.112083113286	0
2	13255	110.012688932944	1
2	13269	110.122964317047	0
2	13597	113.046663229915	1
2	13612	113.147924303259	0
2	14219	118.10049540168	1
2	14226	118.211495858499	0
2	14863	123.001807420519	1
2	14880	123.130184794697	0
2	15856	131.588749352846	1
2	15869	131.665281620283	0
2	15928	132.102208737661	1
2	15936	132.120300330781	0
2	15982	132.421749512483	1
2	15989	132.438680723792	0
2	16452	136.229417505398	1
2	16453	136.2297497523	0
2	17044	140.980973240179	1
2	17045	141.001892698859	0
2	17980	148.189754839243	1
2	17996	148.287387735347	0
2	18602	153.039067547862	1
2	18616	153.135640699371	0
2	19014	156.541653417982	1
2	19015	156.543196218982	0
2	20892	172.203474996429	1
2	20915	172.398212499513	0
2	20932	172.547152561233	1
2	20944	172.607203739332	0
2	21079	173.780669736959	1
2	21092	173.8113722365	0
2	21397	176.134788019494	1
2	21409	176.24335418324	0
2	21450	176.666011883509	1
2	21472	176.776608802696	0
2	21490	176.877678555161	1
2	21518	177.152513758772	0
2	21526	177.221449449849	1
2	21535	177.248584564782	0
2	21816	179.435324106276	1
2	21825	179.503128011049	0
2	22058	181.387317658778	1
2	22081	181.551769494939	0
2	23283	191.033110945022	1
2	23289	191.104295522831	0
2	23617	193.714786628634	1
2	23634	193.897400127515	0
2	23754	194.919096408505	1
2	23781	195.13675104725	0
2	23923	196.264454843756	1
2	23928	196.294569801496	0
2	24212	198.315246193018	1
2	24233	198.454837737291	0
2	24256	198.691332163569	1
2	24264	198.795181600444	0
3	0	0	0
3	6	0.128414423484	1
3	23	0.460752386136	0
3	102	1.477395698614	1
3	127	1.620850264566	0
3	150	1.905792990978	1
3	152	1.925156099166	0
3	225	2.472002357151	1
3	226	2.478332604059	0
3	298	3.032361625135	1
3	315	3.186335571977	0
3	357	3.592480185721	1
3	378	3.758556075181	0
3	424	4.107511122897	1
3	458	4.458467458807	0
3	556	5.365182006824	1
3	565	5.487318535395	0
3	584	5.624470433778	1
3	601	5.724916557504	0
3	604	5.747682098764	1
3	613	5.819921387004	0
3	651	6.172185273747	1
3	668	6.321225351676	0
3	728	6.814792405254	1
3	733	6.863665635056	0
3	759	7.121744049712	1
3	795	7.48052010239	0
3	799	7.527874150685	1
3	809	7.570230949847	0
3	837	7.760028109512	1
3	875	8.094786460688	0
3	912	8.342442368715	1
3	919	8.398576764087	0
3	972	8.924284515901	1
3	980	8.949046952334	0
3	1026	9.314522263127	1
3	1073	9.592960035198	0
3	1088	9.695113809685	1
3	1102	9.802448731516	0
3	1121	9.943454929719	1
3	1122	9.977061093449	0
3	1156	10.250988988763	1
3	1181	10.447692102232	0
3	1194	10.565459988544	1
3	1225	10.720364854049	0
3	1253	11.027077746483	1
3	1275	11.254314992095	0
3	1579	13.687483191116	1
3	1597	13.806733871832	0
3	1628	14.123158839436	1
3	1635	14.238034202437	0
3	1648	14.284100720564	1
3	1693	14.625934053578	0
3	1797	15.451703760026	1
3	1819	15.609215197787	0
3	1857	15.892285138087	1
3	1903	16.242217463468	0
3	1951	16.688400120194	1
3	2005	17.057695553763	0
3	2015	17.156313244625	1
3	2019	17.189733224623	0
3	2066	17.534898502565	1
3	2096	17.716800009294	0
3	2200	18.715386520232	1
3	2237	19.000713090408	0
3	2247	19.154646673704	1
3	2337	19.886255650871	0
3	2386	20.268408213928	1
3	2417	20.512122719873	0
3	2446	20.752065113932	1
3	2457	20.794328821227	0
3	2588	21.785107131117	1
3	2611	21.996704943192	0
3	2644	22.257434619126	1
3	2665	22.388601058727	0
3	2796	23.506095547416	1
3	2842	23.964386805158	0
3	3038	25.548171607685	1
3	3056	25.738079014915	0
3	3099	26.007756045182	1
3	3120	26.30583620104	0
3	3144	26.42599219149	1
3	3169	26.644478801671	0
3	3207	26.922507962678	1
3	3210	26.948573685239	0
3	3261	27.41470223004	1
3	3301	27.800940383274	0
3	3357	28.154336684197	1
3	3434	28.784289343376	0
3	3467	29.126007334422	1
3	3492	29.341235729282	0
3	3542	29.786385356635	1
3	3577	30.074132315334	0
3	3580	30.093740976508	1
3	3609	30.253393527194	0
3	3622	30.38952442957	1
3	3628	30.463904830735	0
3	3762	31.4605334891	1
3	3766	31.496466949488	0
3	3896	32.469013940542	1
3	3931	32.823600859237	0
3	3988	33.133044263068	1
3	3992	33.179310920614	0
3	4024	33.485376987233	1
3	4042	33.61440231391	0
3	4078	33.840733030158	1
3	4099	33.994893160733	0
3	4105	34.051392922363	1
3	4154	34.427390970305	0
3	4171	34.614247155281	1
3	4210	35.045448679932	0
3	4275	35.520853397807	1
3	4309	35.849467685808	0
3	4315	35.882053301947	1
3	4324	35.942563015035	0
3	4464	37.10546676209	1
3	4466	37.15489854309	0
3	4654	38.774199961777	1
3	4658	38.815625842276	0
3	4713	39.22794410549	1
3	4773	39.636151939167	0
3	4781	39.691680504753	1
3	4797	39.847143921456	0
3	4816	40.058029063697	1
3	4862	40.420156423562	0
3	4936	41.043263549637	1
3	4984	41.440579634959	0
3	5005	41.557516286615	1
3	5048	41.922994953666	0
3	5067	42.043809998128	1
3	5085	42.250753216889	0
3	5100	42.407830139715	1
3	5184	43.030894000788	0
3	5192	43.07069417024	1
3	5200	43.114447347396	0
3	5331	44.333133990597	1
3	5381	44.700939954305	0
3	5482	45.664425365348	1
3	5533	46.039120127162	0
3	5539	46.114605893661	1
3	5549	46.192244510146	0
3	5568	46.407022873127	1
3	5609	46.728282903691	0
3	5646	46.998821234053	1
3	5675	47.282285966903	0
3	5740	47.849557395282	1
3	5775	48.209357458489	0
3	5974	49.932650756746	1
3	6003	50.098726646206	0
3	6093	50.957332581007	1
3	6127	51.236328904276	0
3	6144	51.417602675879	1
3	6207	51.860440683816	0
3	6223	51.942306321492	1
3	6256	52.257887748212	0
3	6366	53.135888692835	1
3	6391	53.345345391986	0
3	6485	54.027107429882	1
3	6507	54.154457102966	0
3	6578	54.757817775016	1
3	6599	54.944560058792	0
3	6740	56.097970794612	1
3	6766	56.331631378998	0
3	6769	56.337605730077	1
3	6778	56.397184524502	0
3	6874	57.160674914909	1
3	6898	57.430641327147	0
3	6981	58.254105854225	1
3	6988	58.328393163524	0
3	6994	58.356587221664	1
3	7050	58.783506520466	0
3	7133	59.51654275889	1
3	7176	59.860331021096	0
3	7240	60.374279272747	1
3	7247	60.446890928453	0
3	7267	60.609685070538	1
3	7299	60.984752199817	0
3	7382	61.694431126961	1
3	7393	61.7423734381	0
3	7427	61.951883027335	1
3	7435	62.01071708683	0
3	7490	62.37381221131	1
3	7511	62.594998485613	0
3	7562	63.007391274632	1
3	7584	63.172722429161	0
3	7610	63.35158717046	1
3	7615	63.425315928561	0
3	7706	64.111266952013	1
3	7717	64.192443059417	0
3	7730	64.281708488805	1
3	7747	64.489117166897	0
3	7767	64.71360098003	1
3	7784	64.835551324869	0
3	7798	64.912911605188	1
3	7864	65.470159516794	0
3	7875	65.568218501197	1
3	7900	65.811188272212	0
3	7913	65.883769305149	1
3	7933	66.078889856891	0
3	7944	66.170178003522	1
3	7970	66.415102703729	0
3	8037	66.932200531481	1
3	8077	67.279712468338	0
3	8149	67.826184219594	1
3	8194	68.148561352553	0
3	8197	68.204713691312	1
3	8223	68.308418030358	0
3	8313	69.127584162734	1
3	8331	69.291332755537	0
3	8370	69.741792835768	1
3	8377	69.838236009244	0
3	8449	70.43086812767	1
3	8456	70.472480191901	0
3	8509	70.948299707573	1
3	8599	71.541201803968	0
3	8618	71.726684493299	1
3	8672	72.088811853164	0
3	8704	72.298530707422	1
3	8753	72.665312660601	0
3	8768	72.742820767786	1
3	8797	72.875197401649	0
3	8869	73.433982399671	1
3	8876	73.472987891646	0
3	8905	73.774170817068	1
3	8944	74.060800673372	0
3	9038	74.903868924645	1
3	9068	75.157916627748	0
3	9087	75.344398300448	1
3	9181	76.122367027027	0
3	9329	77.20677593444	1
3	9347	77.364287372201	0
3	9519	78.755563903045	1
3	9544	79.104565309763	0
3	9551	79.18099657372	1
3	9564	79.354147445018	0
3	9593	79.54531599712	1
3	9596	79.663170299842	0
3	9680	80.411886611305	1
3	9739	80.979002260739	0
3	9792	81.334174140732	1
3	9815	81.568207092583	0
3	9851	81.896220079067	1
3	9871	81.993128711874	0
3	9898	82.233398605048	1
3	9918	82.413158998852	0
3	9931	82.577030329596	1
3	9977	82.895404512305	0
3	10016	83.176619251914	1
3	10033	83.404880508055	0
3	10104	83.943557554766	1
3	10135	84.192671388956	0
3	10266	85.305226310626	1
3	10270	85.316490426447	0
3	10309	85.668234267835	1
3	10350	85.991635411323	0
3	10467	86.89291105606	1
3	10505	87.192759957377	0
3	10532	87.497318459958	1
3	10565	87.652874968527	0
3	10674	88.63622211479	1
3	10704	88.889525082963	0
3	10724	89.040036636874	1
3	10750	89.294922166774	0
3	10774	89.523621284313	1
3	10776	89.576590556232	0
3	10849	90.152498408316	1
3	10873	90.336075568638	0
3	10876	90.367415559667	1
3	10908	90.661399673408	0
3	10927	90.813068829945	1
3	10954	90.979423995004	0
3	10964	91.039129429592	1
3	10990	91.282564659938	0
3	11037	91.699309727086	1
3	11066	91.914817397545	0
3	11076	91.990595982505	1
3	11091	92.1480143284	0
3	11109	92.32780923648	1
3	11140	92.562214555796	0
3	11270	93.581990906971	1
3	11319	93.962457364495	0
3	11388	94.525176208376	1
3	11392	94.576656010434	0
3	11449	95.110260121434	1
3	11462	95.181754674744	0
3	11486	95.375440301376	1
3	11534	95.786533982909	0
3	11552	95.920428413528	1
3	11587	96.14515217875	0
3	11668	96.812955495998	1
3	11699	97.021946735817	0
3	11712	97.121720967352	1
3	11737	97.267502829961	0
3	11819	98.000324791301	1
3	11838	98.143406989787	0
3	11846	98.217599709615	1
3	11854	98.297379439025	0
3	11889	98.663222786415	1
3	11927	98.991837074416	0
3	11933	99.014389681726	1
3	11944	99.042037966014	0
3	12054	100.101103278066	1
3	12058	100.195312246751	0
3	12086	100.362378213092	1
3	12096	100.488517691914	0
3	12120	100.738902565561	1
3	12199	101.422103772257	0
3	12277	101.943578875348	1
3	12289	102.081541021188	0
3	12308	102.261984430723	1
3	12333	102.444072121185	0
3	12404	103.005095095657	1
3	12419	103.127045440496	0
3	12434	103.294876406718	1
3	12469	103.643970905302	0
3	12480	103.690331891928	1
3	12488	103.763874466296	0
3	12706	105.501061863363	1
3	12753	105.817015657548	0
3	12840	106.619753788882	1
3	12864	106.797186886029	0
3	12872	106.888857267895	1
3	12883	106.931214067057	0
3	12895	107.079942703531	1
3	12909	107.223583453215	0
3	12977	107.770249780272	1
3	13066	108.427105988808	0
3	13099	108.689930012267	1
3	13121	108.967343773809	0
3	13124	108.974654727433	1
3	13147	109.19248969455	0
3	13176	109.359528889511	1
3	13180	109.404306077196	0
3	13222	109.791650364924	1
3	13287	110.257668247567	0
3	13300	110.44516419629	1
3	13317	110.609098972825	0
3	13365	111.014865432963	1
3	13372	111.062900835968	0
3	13399	111.265272366911	1
3	13434	111.644435538307	0
3	13523	112.411186111535	1
3	13547	112.574003785675	0
3	13572	112.788589699383	1
3	13631	113.274808517011	0
3	13662	113.544956298361	1
3	13670	113.627994243091	0
3	13758	114.348753860689	1
3	13796	114.727917032085	0
3	13860	115.215784012529	1
3	13864	115.260188832749	0
3	13906	115.506613731294	1
3	13925	115.821636606816	0
3	13946	115.91659768997	1
3	13950	115.941080850804	0
3	13963	116.016626671332	1
3	14004	116.363021505794	0
3	14153	117.584158615492	1
3	14174	117.840812890851	0
3	14186	117.925331461526	1
3	14249	118.410526268625	0
3	14268	118.480844289161	1
3	14300	118.773152749309	0
3	14306	118.80785029624	1
3	14317	118.869942571055	0
3	14417	119.540964603334	1
3	14422	119.567961244558	0
3	14448	119.791501187816	1
3	14477	120.009522338665	0
3	14514	120.303104454003	1
3	14526	120.401130189205	0
3	14622	121.133311276514	1
3	14667	121.497207381838	0
3	14701	121.73567462983	1
3	14739	122.092309569584	0
3	14788	122.449616449703	1
3	14812	122.616809441558	0
3	14847	122.810414233994	1
3	14893	123.200934613077	0
3	15003	123.940996754825	1
3	15027	124.267935389232	0
3	15030	124.269842494096	1
3	15076	124.61316529697	0
3	15141	125.146311726796	1
3	15145	125.209800379605	0
3	15306	126.508469541	1
3	15327	126.782345811623	0
3	15344	126.910808521604	1
3	15372	127.223876467934	0
3	15443	127.867741549017	1
3	15459	128.10447416499	0
3	15507	128.518280680387	1
3	15515	128.65968722528	0
3	15535	128.896058033875	1
3	15540	128.950516775654	0
3	15548	129.008259523663	1
3	15555	129.036093991683	0
3	15619	129.584901720568	1
3	15634	129.733197063567	0
3	15740	130.620806782788	1
3	15754	130.694907908354	0
3	15842	131.471371262803	1
3	15894	131.838525583447	0
3	15917	131.991926647168	1
3	15943	132.16647389646	0
3	15960	132.265716036227	1
3	16017	132.63566311286	0
3	16056	132.89594196212	1
3	16068	133.02263999214	0
3	16341	135.315366416521	1
3	16384	135.619497543688	0
3	16429	136.029509147912	1
3	16504	136.53304305267	0
3	16561	136.988919992748	1
3	16597	137.283928117018	0
3	16621	137.44792347588	1
3	16638	137.67395052723	0
3	16786	138.824946383391	1
3	16810	139.022859691122	0
3	16848	139.33458584324	1
3	16863	139.525051801668	0
3	16890	139.745573774171	1
3	16918	139.953168635996	0
3	16990	140.577394875423	1
3	16996	140.630736514807	0
3	17026	140.869143697531	1
3	17075	141.283774869982	0
3	17202	142.301814224016	1
3	17228	142.466214459883	0
3	17269	142.766720392652	1
3	17285	142.846220846463	0
3	17342	143.252267104577	1
3	17381	143.463958008518	0
3	17578	144.889259819038	1
3	17601	145.144796992002	0
3	17636	145.404307934924	1
3	17664	145.705087754904	0
3	17685	145.869411630931	1
3	17693	145.991920526967	0
3	17735	146.323081727142	1
3	17744	146.423807126467	0
3	17766	146.599624775446	1
3	17800	146.855348132142	0
3	17961	148.086681671628	1
3	18014	148.434286700351	0
3	18066	148.834850837292	1
3	18082	148.921612456673	0
3	18201	149.861997495686	1
3	18228	150.106363644695	0
3	18291	150.473506243528	1
3	18300	150.672909021119	0
3	18422	151.539343511965	1
3	18450	151.827742113729	0
3	18522	152.406456844509	1
3	18526	152.433639669465	0
3	18573	152.806840227638	1
3	18627	153.219795746496	0
3	18643	153.387832583394	1
3	18653	153.414922316484	0
3	18717	154.024755194038	1
3	18727	154.138234179044	0
3	18805	154.796162866708	1
3	18823	154.969034462407	0
3	18933	155.892969116941	1
3	18957	156.055135148017	0
3	18980	156.22389111761	1
3	19029	156.667939319809	0
3	19159	157.841042612494	1
3	19183	158.103375491697	0
3	19201	158.253298276757	1
3	19213	158.377948285718	0
3	19265	158.842231346109	1
3	19286	159.069096224256	0
3	19295	159.10610313071	1
3	19300	159.132727404469	0
3	19349	159.529488600232	1
3	19384	159.711297015095	0
3	19417	160.000891075098	1
3	19433	160.233434557088	0
3	19467	160.476638151241	1
3	19473	160.559583004105	0
3	19535	161.135933287443	1
3	19568	161.376761945533	0
3	19628	161.873124577573	1
3	19636	161.965285525199	0
3	19763	162.921848339869	1
3	19805	163.267870806866	0
3	19826	163.398166899385	1
3	19869	163.724081523263	0
3	20043	165.144133160824	1
3	20081	165.432531762588	0
3	20127	165.845876978526	1
3	20149	166.026475199127	0
3	20437	168.525560079983	1
3	20443	168.6116700563	0
3	20449	168.66355677983	1
3	20450	168.688691583728	0
3	20565	169.68329629414	1
3	20593	169.908020059362	0
3	20652	170.384693598005	1
3	20665	170.463728592484	0
3	20729	170.93076567408	1
3	20754	171.082412324265	0
3	20881	172.062616321541	1
3	20965	172.802324291074	0
3	21005	173.028776446641	1
3	21046	173.394441297425	0
3	21062	173.465349769503	1
3	21110	173.995321764287	0
3	21134	174.093749367356	1
3	21151	174.277140343946	0
3	21157	174.3478044414	1
3	21205	174.650539190572	0
3	21312	175.51505548852	1
3	21367	175.894684119247	0
3	21376	175.94331909819	1
3	21411	176.344824317495	0
3	21428	176.485324353077	1
3	21555	177.401255225496	0
3	21583	177.629704597224	1
3	21633	177.988666833635	0
3	21658	178.135681694563	1
3	21680	178.318234844356	0
3	21713	178.598727517485	1
3	21743	178.865714990002	0
3	21746	178.892206163056	1
3	21747	178.909800525785	0
3	21799	179.302608131062	1
3	21841	179.649468424856	0
3	22046	181.286643859748	1
3	22083	181.563685253824	0
3	22100	181.726635255389	1
3	22120	181.90974695638	0
3	22186	182.342367256344	1
3	22212	182.5832890063	0
3	22289	183.14911392881	1
3	22297	183.208227263904	0
3	22450	184.402729813945	1
3	22482	184.644117023233	0
3	22533	184.968067414783	1
3	22534	184.981751919128	0
3	22576	185.296017812941	1
3	22578	185.350848922185	0
3	22652	185.933500585056	1
3	22686	186.216499858575	0
3	22704	186.342671744621	1
3	22736	186.588248087892	0
3	22739	186.598694959099	1
3	22781	186.936897709327	0
3	22830	187.337173263545	1
3	22843	187.432592426491	0
3	22853	187.517513447723	1
3	22881	187.779008500129	0
3	22887	187.84230206637	1
3	22925	188.109196447021	0
3	22945	188.274099801483	1
3	22960	188.359651226603	0
3	23024	188.976618431325	1
3	23061	189.236624013871	0
3	23216	190.569708959016	1
3	23246	190.802345532873	0
3	23256	190.88832239304	1
3	23322	191.450224897961	0
3	23332	191.500481033327	1
3	23353	191.729859391863	0
3	23413	192.092049382349	1
3	23445	192.303461010692	0
3	23578	193.347213659343	1
3	23585	193.399810563796	0
3	23598	193.570368401241	1
3	23684	194.248449555291	0
3	23688	194.252284778934	1
3	23697	194.365112120876	0
3	23723	194.565835477691	1
3	23725	194.588642984932	0
3	23744	194.757401692122	1
3	23797	195.198005495268	0
3	23803	195.273582621012	1
3	23840	195.548948361495	0
3	23856	195.681027645152	1
3	23863	195.741351174507	0
3	23899	196.028420155775	1
3	23955	196.479450247946	0
3	24014	196.914409219381	1
3	24030	197.040548698203	0
3	24034	197.045904580784	1
3	24070	197.291480924055	0
3	24102	197.456366334856	1
3	24117	197.648694130609	0
3	24146	197.853063298855	1
3	24185	198.121260965634	0
3	24195	198.176679240819	1
3	24287	198.878591912639	0
3	24400	199.814223550168	1
4	0	0	0
5	0	0	0
6	0	0	0
7	0	0	0
8	0	0	0
8	18	0.382268234156	1
8	43	0.691007565427	2
8	52	0.878397178879	1
8	133	1.655016474854	0
8	280	2.851169468835	1
8	337	3.442528203645	0
8	465	4.492337380443	1
8	504	4.852265227301	0
8	508	4.881159622502	1
8	532	5.230345643859	0
8	681	6.48127390761	1
8	749	6.964498366128	0
8	948	8.663455282151	1
8	968	8.805795083324	0
8	1020	9.126077481359	1
8	1066	9.570297949947	2
8	1074	9.595451635042	1
8	1137	10.057772781019	0
8	1220	10.703827511705	1
8	1221	10.707629836535	0
8	1327	11.700610610656	1
8	1379	12.088344039953	2
8	1403	12.234537757094	3
8	1407	12.286286241124	2
8	1421	12.446544200185	1
8	1425	12.466200370383	0
8	1527	13.249083921778	1
8	1572	13.624991227965	2
8	1595	13.774788431825	1
8	1611	13.904707887209	2
8	1616	13.974158158116	1
8	1629	14.123585166252	0
8	1651	14.284537911787	1
8	1705	14.74275452748	0
8	1717	14.815298648085	1
8	1754	15.19645102735	0
8	1835	15.732492466271	1
8	1843	15.785068247542	0
8	2426	20.587107231468	1
8	2430	20.615399472905	0
8	2526	21.303749372158	1
8	2527	21.358493459524	0
8	2556	21.604174639471	1
8	2563	21.664166963415	0
8	2860	24.056258682162	1
8	2901	24.448102891263	0
8	2907	24.454351866059	1
8	2942	24.785065808938	0
8	2960	24.92029710263	1
8	2995	25.184005834685	0
8	3014	25.325827915687	1
8	3032	25.526384227823	0
8	3051	25.665913061891	1
8	3069	25.812000415186	0
8	3168	26.637866064533	1
8	3184	26.763275041158	0
8	3336	28.047489425074	1
8	3392	28.477500836272	2
8	3393	28.503544330004	1
8	3414	28.622099259589	2
8	3464	29.08620937515	1
8	3501	29.435229892936	2
8	3511	29.540098358412	3
8	3519	29.601682409927	2
8	3545	29.846067240649	3
8	3589	30.154099809007	4
8	3599	30.203803052106	3
8	3616	30.348433498387	4
8	3673	30.839619986052	3
8	3692	30.928875044603	2
8	3709	31.03235708261	3
8	3736	31.325858228561	4
8	3788	31.652543024943	3
8	3841	32.084440697078	4
8	3865	32.201603174769	5
8	3874	32.273718117824	4
8	3878	32.341703874246	5
8	3917	32.666908003763	6
8	3960	32.972113879338	5
8	3965	32.992973488527	4
8	4005	33.276906050742	5
8	4021	33.455695780834	4
8	4091	33.96695677914	3
8	4117	34.150522733574	4
8	4165	34.550935651549	5
8	4177	34.695037369116	4
8	4247	35.320825644798	3
8	4253	35.384407338193	2
8	4316	35.884035092912	1
8	4360	36.213106757031	2
8	4370	36.408533920126	1
8	4391	36.496391660535	2
8	4424	36.732571435349	3
8	4439	36.895726138598	2
8	4457	37.060286203308	3
8	4461	37.104121657327	2
8	4481	37.31853966918	3
8	4495	37.404379685755	2
8	4560	37.889967318904	1
8	4604	38.29480790105	2
8	4609	38.350483306393	1
8	4648	38.732869535129	2
8	4683	38.975669862579	1
8	4692	39.103872879412	2
8	4789	39.753893743876	1
8	4810	40.016959452446	2
8	4840	40.220183139018	3
8	4858	40.40936684802	2
8	4884	40.555183539181	1
8	4905	40.78524095976	0
8	5055	41.973598176523	1
8	5077	42.139865999788	0
8	5328	44.253900320365	1
8	5356	44.50826999619	0
8	5368	44.620767849593	1
8	5432	45.209560966494	2
8	5438	45.294516804098	1
8	5458	45.3956056794	0
8	5495	45.844682670294	1
8	5534	46.046465600742	0
8	5553	46.264628844338	1
8	5605	46.703551919574	2
8	5616	46.791996056098	1
8	5712	47.609404259084	2
8	5713	47.612139728939	1
8	5730	47.807899138255	0
8	5748	47.890465671106	1
8	5784	48.253201010081	2
8	5799	48.425263340995	1
8	5817	48.596552824146	0
8	6235	52.080742094854	1
8	6236	52.081078876511	0
8	6259	52.275931113122	1
8	6273	52.452620757187	2
8	6319	52.76824254077	1
8	6323	52.785491832984	0
8	6641	55.348013739756	1
8	6666	55.522637465584	0
8	7013	58.49665838527	1
8	7046	58.755141467234	0
8	7120	59.377551153959	1
8	7127	59.476603142756	0
8	7152	59.738847840489	1
8	7159	59.764225061771	0
8	7457	62.185154659771	1
8	7480	62.300799913911	0
8	7955	66.222833993198	1
8	7988	66.568580997182	2
8	7999	66.653012131127	1
8	8030	66.879605650814	2
8	8061	67.130175691335	1
8	8089	67.348599868328	0
8	8092	67.360169976676	1
8	8120	67.570669044094	2
8	8142	67.788857966124	1
8	8143	67.803299234024	0
8	8373	69.750389158731	1
8	8376	69.820648730229	0
8	8496	70.796491121133	1
8	8533	71.088931907625	2
8	8560	71.298271791176	3
8	8569	71.408894619955	2
8	8602	71.542717167367	3
8	8609	71.602648297618	2
8	8666	72.055062945378	3
8	8686	72.242677268035	2
8	8731	72.465915200995	1
8	8796	72.860446013422	2
8	8825	73.067032977347	1
8	8866	73.430672126005	0
8	8972	74.334268421964	1
8	9013	74.665857563455	0
8	9022	74.710504636453	1
8	9055	75.078600212005	2
8	9064	75.128981002093	1
8	9094	75.445284883744	0
8	9146	75.786018832964	1
8	9159	75.969583137793	0
8	9211	76.261650175792	1
8	9215	76.277462946502	0
8	9452	78.18102173936	1
8	9463	78.299815769179	0
8	9490	78.567431305911	1
8	9523	78.866033814772	0
8	9536	79.016218666363	1
8	9558	79.245117097156	0
8	9575	79.454789132256	1
8	9619	79.830509407356	2
8	9624	79.848441178326	1
8	9631	79.920848090993	0
8	9640	79.958020546104	1
8	9664	80.259775075413	2
8	9685	80.468011685884	1
8	9732	80.944826685268	2
8	9749	81.007152354164	1
8	9801	81.412028448566	2
8	9811	81.51540475499	1
8	9839	81.761708601957	0
8	9845	81.807389424279	1
8	9867	81.969036291171	2
8	9903	82.311279074832	1
8	9911	82.38067739002	0
8	9981	82.946888799131	1
8	9992	83.01798283464	0
8	10075	83.634269493915	1
8	10094	83.841822034544	0
8	10346	85.976262270478	1
8	10384	86.308296344139	0
8	10398	86.439335399778	1
8	10492	87.105173529807	0
8	10509	87.227829421782	1
8	10572	87.681420233664	0
8	10616	88.03675417677	1
8	10645	88.273512217579	0
8	11019	91.521131645801	1
8	11062	91.904328803724	2
8	11073	91.963646414304	1
8	11077	92.022213778567	0
8	11813	97.92924938389	1
8	11835	98.084498298884	0
8	12198	101.355340373523	1
8	12217	101.536890055928	0
8	12577	104.419400991134	1
8	12584	104.479556757441	0
8	13093	108.654115423288	1
8	13116	108.84941418	0
8	13163	109.278155940871	1
8	13179	109.39918454644	2
8	13208	109.637265573231	1
8	13259	110.068297305424	0
8	13362	110.972572262686	1
8	13384	111.202747540287	0
8	13390	111.219372931876	1
8	13468	111.959510092899	0
8	13513	112.286691441674	1
8	13530	112.452008300096	2
8	13548	112.63804911105	1
8	13559	112.69501188999	0
8	13789	114.641555239268	1
8	13806	114.810861219753	2
8	13810	114.86002070566	1
8	13881	115.407585446882	0
8	13892	115.451313920234	1
8	13915	115.690995329426	0
8	13980	116.196147648067	1
8	13998	116.293517117935	0
8	14466	119.928726943312	1
8	14486	120.101079505259	0
8	14586	120.876109519424	1
8	14594	120.928640535055	0
8	14776	122.340150291761	1
8	14813	122.628738985144	0
8	15169	125.409651061902	1
8	15219	125.788723966023	0
8	15478	128.301214659689	1
8	15494	128.458913990026	2
8	15516	128.662770984714	1
8	15538	128.897075564051	2
8	15545	128.97546454939	1
8	15588	129.364977636369	0
8	15632	129.708544176733	1
8	15646	129.856640817979	2
8	15654	129.981940692779	1
8	15689	130.217164595713	2
8	15717	130.473344947722	1
8	15796	131.091110296793	0
8	15832	131.418297742222	1
8	15880	131.725322645417	0
8	15912	131.944798094415	1
8	15920	132.051655185332	0
8	16146	133.604447435223	1
8	16164	133.794343371138	2
8	16174	133.921799076343	1
8	16210	134.252009045899	2
8	16229	134.376760154225	3
8	16254	134.628618910799	2
8	16302	134.983270831228	3
8	16314	135.074894203553	2
8	16353	135.376753394034	3
8	16402	135.733175332011	2
8	16439	136.094147169878	3
8	16454	136.229995062416	2
8	16502	136.506564612882	3
8	16558	136.963892274186	2
8	16604	137.344780715058	1
8	16680	137.91400735813	0
8	17124	141.665093313352	1
8	17167	141.965612088893	0
8	17913	147.725842382769	1
8	17951	148.068566486416	0
8	18151	149.499618994734	1
8	18195	149.820228101871	0
8	18238	150.144507207824	1
8	18260	150.264698236138	0
8	18365	151.118928582976	1
8	18370	151.168747384838	0
8	18411	151.491814883715	1
8	18473	151.990094496671	0
8	18563	152.742579771216	1
8	18628	153.263324281062	0
8	18835	155.01525908216	1
8	18910	155.586361030959	0
8	18977	156.211322215862	1
8	18988	156.342120717744	0
8	19077	157.066355444502	1
8	19090	157.148235137656	0
8	19120	157.556803675752	1
8	19152	157.789603654213	2
8	19165	157.94912378663	1
8	19205	158.283278679991	0
8	19225	158.602753982331	1
8	19241	158.705084046581	0
8	19545	161.250213518097	1
8	19596	161.603706302783	2
8	19613	161.778709800492	1
8	19614	161.798967690186	0
8	19760	162.912109849239	1
8	19778	163.092064144935	0
8	19891	163.943719470417	1
8	19927	164.24761504597	2
8	19959	164.494350033175	1
8	19999	164.800164014389	2
8	20056	165.193347514185	1
8	20077	165.397731569608	0
8	20087	165.477858625919	1
8	20134	165.9206258115	0
8	20169	166.151960726555	1
8	20216	166.599365402817	0
8	20226	166.646099515079	1
8	20296	167.225978957774	2
8	20300	167.23658634892	1
8	20358	167.87481016085	0
8	20434	168.49530426283	1
8	20438	168.528478106506	0
8	20517	169.211778576025	1
8	20532	169.316730646067	0
8	20545	169.412187589989	1
8	20562	169.660805778117	2
8	20569	169.716874110806	1
8	20586	169.858879911826	0
8	20599	169.960804911056	1
8	20606	170.054839894307	0
8	20661	170.437075278261	1
8	20701	170.724360282542	0
8	20743	171.041655433928	1
8	20777	171.347139960745	0
8	20912	172.354350310941	1
8	20946	172.637692855449	0
8	21012	173.165802694955	1
8	21036	173.276796251078	0
8	21150	174.233163046749	1
8	21161	174.360023404674	0
8	21179	174.476958066882	1
8	21207	174.654063664978	0
8	21212	174.67769585569	1
8	21216	174.69478001753	0
8	21241	174.940383979218	1
8	21249	175.015697081982	0
8	21344	175.697058839077	1
8	21373	175.907448713766	2
8	21387	176.064987532707	3
8	21405	176.186703429954	2
8	21440	176.540806299454	3
8	21451	176.676302526409	2
8	21465	176.73025670787	1
8	21476	176.815901449446	0
8	21509	177.036174875224	1
8	21519	177.182148049252	0
8	21529	177.239547128329	1
8	21559	177.428180224361	2
8	21587	177.692606754897	1
8	21640	178.01303296099	2
8	21671	178.208239017898	3
8	21684	178.356905078313	2
8	21716	178.600574844895	3
8	21723	178.699885190946	2
8	21739	178.850492256699	3
8	21813	179.424124530242	4
8	21820	179.461862645855	3
8	21839	179.636808994976	4
8	21872	179.928057087404	5
8	21880	179.99057350954	4
8	21904	180.170036080578	5
8	21921	180.275989123737	4
8	21925	180.3206417854	5
8	21985	180.773611146803	4
8	22068	181.483439578739	3
8	22096	181.719784055377	4
8	22097	181.720316486938	3
8	22143	182.091219177476	4
8	22180	182.331112484827	5
8	22194	182.493526039103	4
8	22197	182.497567913781	5
8	22254	182.934106280754	6
8	22269	183.033067853714	5
8	22282	183.120905788715	6
8	22327	183.448855300161	7
8	22340	183.578827436448	6
8	22369	183.763956468004	5
8	22414	184.00063872785	6
8	22430	184.223469589667	5
8	22447	184.35344100077	4
8	22547	185.0736992373	3
8	22570	185.277721007734	4
8	22579	185.371550387745	3
8	22582	185.379506844475	4
8	22656	185.940175311322	3
8	22689	186.233289004217	4
8	22726	186.545705697311	3
8	22740	186.644187121465	2
8	22746	186.659245892062	3
8	22826	187.325173279371	4
8	22827	187.336966834352	3
8	22927	188.145477263607	2
8	22970	188.401865433443	3
8	22981	188.504904375794	2
8	23004	188.807963413287	3
8	23037	189.057301686619	4
8	23068	189.312010792892	3
8	23073	189.385019425055	2
8	23100	189.703730184689	1
8	23120	189.867598460725	0
8	23306	191.171279632307	1
8	23310	191.330053591652	0
8	23475	192.589190713975	1
8	23515	192.856394604787	2
8	23557	193.181969783621	1
8	23566	193.288564501989	2
8	23614	193.714090391116	1
8	23629	193.826157120156	2
8	23701	194.381798458342	1
8	23741	194.75259269905	2
8	23755	194.949219942927	1
8	23804	195.273747324354	0
8	23814	195.366666781815	1
8	23839	195.529810343223	2
8	23859	195.73947821414	1
8	23882	195.890748405835	2
8	23935	196.313117466849	1
8	23989	196.761231964087	2
8	23993	196.801111977982	1
8	23998	196.868504561517	0
8	24062	197.227955528167	1
8	24074	197.325410232031	0
8	24140	197.820411923252	1
8	24162	197.988199118808	2
8	24163	198.003748677017	1
8	24249	198.671857890574	0
8	24323	199.218699816526	1
8	24331	199.26134242334	0
8	24397	199.792759732721	1
9	0	0	0
9	12	0.234958464652	1
9	164	2.019658489338	0
9	170	2.055993362422	1
9	187	2.162297140022	0
9	253	2.651668212935	1
9	435	4.225565840909	0
9	442	4.342809387483	1
9	540	5.255216716354	0
9	600	5.690687514004	1
9	661	6.26573077887	0
9	667	6.307019530331	1
9	760	7.149226251353	0
9	784	7.360406344477	1
9	813	7.607512484105	0
9	899	8.276883646473	1
9	1250	10.983417938799	0
9	1259	11.106538970209	1
9	1301	11.487427411081	0
9	1312	11.587288760114	1
9	1433	12.529180344282	0
9	1449	12.647831532451	1
9	1478	12.890725635608	0
9	1501	13.030461415461	1
9	1762	15.245992599175	0
9	1811	15.548592485674	1
9	1909	16.320197452516	0
9	1954	16.696994079929	1
9	1956	16.736105847159	0
9	1978	16.866902882885	1
9	2009	17.120226790637	0
9	2022	17.195182128995	1
9	2024	17.253749493258	0
9	2336	19.848470995296	1
9	2344	19.915261859335	0
9	2395	20.277433689404	1
9	2432	20.640872264896	0
9	2473	20.89436715506	1
9	2622	22.099611305244	0
9	2638	22.237682745606	1
9	2688	22.61977462547	0
9	2778	23.322935275082	1
9	2787	23.428236186855	0
9	2826	23.813288823143	1
9	3107	26.086785651623	0
9	3135	26.358518393617	1
9	3218	27.05571071614	0
9	3304	27.828214482497	1
9	4979	41.352261298014	0
9	5015	41.626599269829	1
9	5079	42.170152547746	0
9	5112	42.433053244746	1
9	5139	42.649872836417	0
9	5199	43.092073372382	1
9	5258	43.677345868677	0
9	5294	43.976751108191	1
9	5856	48.92549281521	0
9	5957	49.759262009619	1
9	6012	50.13934815783	0
9	6031	50.310317277166	1
9	6053	50.670145535683	0
9	6056	50.679368134125	1
9	6115	51.108795280995	0
9	6150	51.438920051607	1
9	6171	51.614421571229	0
9	6199	51.810104530214	1
9	6353	53.049245545331	0
9	6356	53.07763083	1
9	6380	53.22645611864	0
9	6569	54.727966584734	1
9	6728	56.027279549435	0
9	6924	57.681919592809	1
9	6925	57.699369458189	0
9	6974	58.153020825055	1
9	7206	60.181417245559	0
9	7264	60.606042650999	1
9	7292	60.924151691137	0
9	7295	60.934662729786	1
9	7330	61.266009598833	0
9	7333	61.275440208339	1
9	7337	61.325382926494	0
9	7399	61.748822563053	1
9	7521	62.705556561452	0
9	7540	62.820340798334	1
9	7567	63.029939756054	0
9	7577	63.153595990413	1
9	7654	63.715601999535	0
9	7724	64.24293224393	1
9	7763	64.629236160265	0
9	7802	64.952636054536	1
9	7841	65.304441386442	0
9	7857	65.423142406443	1
9	7885	65.672254277724	0
9	7906	65.862753859913	1
9	8236	68.418256558781	0
9	8343	69.402052534284	1
9	8388	69.922138751862	0
9	8478	70.639696531096	1
9	8907	73.816173749678	0
9	8917	73.883221072522	1
9	9222	76.385170736259	0
9	9310	77.088488633376	1
9	9346	77.35404750421	0
9	9381	77.635116299432	1
9	9952	82.773399647644	0
9	9955	82.775088731483	1
9	10028	83.380418544306	0
9	10036	83.417609789971	1
9	10131	84.118813575799	0
9	10217	84.789411436213	1
9	10251	85.117950280946	0
9	10302	85.595659887889	1
9	10685	88.784372069554	0
9	10806	89.84896523152	1
9	10904	90.647246429345	0
9	10961	91.014209238445	1
9	10997	91.339940058864	0
9	11001	91.39321633224	1
9	11114	92.35035147697	0
9	11185	92.826810535423	1
9	11197	93.038014078466	0
9	11483	95.363594713815	1
9	11548	95.858809858898	0
9	11756	97.414383353674	1
9	11870	98.43289388698	0
9	11936	99.014818111815	1
9	11969	99.340950078565	0
9	12067	100.269046426292	1
9	12155	101.080766026191	0
9	12161	101.111674945529	1
9	12244	101.794626573316	0
9	12273	101.934702849115	1
9	12328	102.394617117108	0
9	12413	103.073093000899	1
9	12496	103.821230907404	0
9	12559	104.317493639893	1
9	12612	104.702594117235	0
9	12619	104.720792525362	1
9	12670	105.108299880688	0
9	12728	105.623550045311	1
9	12752	105.795641821124	0
9	12856	106.722346626788	1
9	12865	106.802776466066	0
9	12878	106.899325431611	1
9	12925	107.366059187224	0
9	13017	108.056983076416	1
9	13053	108.373086384902	0
9	13075	108.507637506358	1
9	13286	110.238784495914	0
9	13306	110.458821670253	1
9	13642	113.348679835646	0
9	13747	114.239447332275	1
9	14055	116.79715633596	0
9	14111	117.284230296602	1
9	14128	117.408786232243	0
9	14134	117.433825860926	1
9	14161	117.710616829016	0
9	14172	117.774198976913	1
9	14182	117.889528546951	0
9	14315	118.840867367582	1
9	14369	119.288947818824	0
9	14454	119.807440391285	1
9	14530	120.418586825902	0
9	14566	120.744714942491	1
9	14619	121.129213700338	0
9	14726	121.965363441324	1
9	14753	122.196022581399	0
9	14759	122.23561558119	1
9	14829	122.736246201736	0
9	14836	122.768726410074	1
9	14837	122.786577421784	0
9	14949	123.551284775147	1
9	14967	123.753462525752	0
9	15009	123.992333817491	1
9	15046	124.338322527604	0
9	15126	125.022333901478	1
9	15294	126.424540899969	0
9	15440	127.864088640558	1
9	15947	132.188044937724	0
9	15966	132.289367188987	1
9	16057	132.905527952736	0
9	16113	133.417357565657	1
9	16708	138.148477388346	0
9	16737	138.41391897575	1
9	16825	139.167672930882	0
9	16828	139.199573886031	1
9	16842	139.327138419151	0
9	16931	140.055319828176	1
9	16945	140.144976033057	0
9	16976	140.441536862784	1
9	16997	140.648127223025	0
9	17088	141.407015823581	1
9	17188	142.200282692274	0
9	17221	142.360648544701	1
9	17250	142.60855697699	0
9	17302	142.906127569834	1
9	17408	143.619566318745	0
9	17489	144.242263108223	1
9	17515	144.44263570034	0
9	17652	145.481533588666	1
9	17676	145.833138347407	0
9	17688	145.936743129894	1
9	17708	146.060897919204	0
9	17719	146.182852535333	1
9	17726	146.256061740661	0
9	17850	147.228750570595	1
9	17876	147.44155869896	0
9	17892	147.52541435483	1
9	17987	148.215586616568	0
9	18119	149.168164741537	1
9	18309	150.7097700899	0
9	18318	150.740724250125	1
9	18533	152.461642008251	0
9	18538	152.499140521335	1
9	18672	153.665072331123	0
9	18678	153.703371946897	1
9	18679	153.734661360681	0
9	18808	154.819569820083	1
9	19007	156.485530530921	0
9	19021	156.577604482427	1
9	19266	158.848092713428	0
9	19335	159.446340511191	1
9	19427	160.095194700881	0
9	19436	160.256802263028	1
9	19498	160.772275297805	0
9	19519	160.96498446894	1
9	19618	161.819426153045	0
9	19642	161.984482136192	1
9	19643	161.998522257762	0
9	19700	162.451433455022	1
9	19862	163.696190518767	0
9	19877	163.772086064992	1
9	20613	170.114610697561	0
9	20618	170.177196687651	1
9	20791	171.450435140866	0
9	20801	171.539277322502	1
9	20865	171.932801872787	0
9	20874	172.016718335734	1
9	20947	172.660157049961	0
9	20959	172.713185656634	1
9	21066	173.518486915244	0
9	21091	173.79681395656	1
9	21279	175.242344758751	0
9	21331	175.580170178139	1
9	23196	190.416366640939	0
9	23249	190.81056909357	1
9	23387	191.898477942063	0
9	23453	192.3975281342	1
9	24349	199.474551698036	0
9	24386	199.684336932381	1
10	0	0	0
11	0	0	0
12	0	0	0
13	0	0	0
14	0	0	0
14	131	1.628536419291	1
14	141	1.761710399066	0
14	196	2.223065358164	1
14	199	2.22361760731	2
14	210	2.399421224825	1
14	236	2.52792344191	2
14	246	2.587707372648	3
14	259	2.730346023332	4
14	266	2.779939776068	3
14	290	2.931380656095	2
14	291	2.951821735294	1
14	302	3.081099946803	2
14	312	3.130484629447	1
14	314	3.182570071637	0
14	394	3.917203693372	1
14	404	3.951648804121	0
14	417	4.010577086955	1
14	421	4.102696586471	0
14	448	4.351328982972	1
14	451	4.361323417925	2
14	462	4.490192621479	1
14	477	4.614202302043	2
14	484	4.718887934648	3
14	485	4.721334055498	2
14	500	4.793614724219	3
14	512	4.896655619397	2
14	521	5.061234801551	3
14	527	5.110884159338	4
14	539	5.241795379719	3
14	557	5.389796655073	2
14	560	5.420314110611	3
14	581	5.616252795607	4
14	606	5.773459987731	3
14	609	5.798394527169	4
14	616	5.823265599664	5
14	645	6.090085878139	6
14	648	6.143954548213	5
14	654	6.178975757584	6
14	671	6.327683900248	7
14	675	6.395930159108	6
14	678	6.422688729748	7
14	703	6.645547183942	6
14	715	6.71355652865	7
14	731	6.83377966218	8
14	732	6.845437352648	7
14	736	6.92399269442	8
14	751	7.030684632889	7
14	752	7.042870660873	6
14	764	7.171806698897	5
14	781	7.31135188397	6
14	790	7.4664329778	7
14	796	7.507119017296	6
14	802	7.532547249438	7
14	814	7.613157115641	6
14	827	7.68941806496	5
14	830	7.717275134663	6
14	852	7.87859632197	5
14	868	7.988807087577	6
14	874	8.083287445134	7
14	881	8.160349081891	6
14	884	8.172998292591	7
14	887	8.175561367415	8
14	890	8.206015201191	9
14	904	8.317686427072	8
14	934	8.554920875083	7
14	944	8.606514945177	6
14	954	8.697553803432	7
14	973	8.9286584914	6
14	995	9.001344106831	7
14	996	9.019169231507	6
14	1038	9.371679573271	5
14	1041	9.373843966634	6
14	1056	9.462387044726	7
14	1063	9.551814295078	8
14	1100	9.750429184968	7
14	1101	9.795144045716	6
14	1114	9.879563610347	7
14	1118	9.916218130202	6
14	1123	9.97999822828	5
14	1150	10.163500518352	6
14	1153	10.195727377942	7
14	1159	10.299481963644	8
14	1163	10.333393039817	7
14	1174	10.39265251461	6
14	1177	10.40521607426	7
14	1185	10.510520401409	8
14	1200	10.579828436193	9
14	1209	10.625821664329	10
14	1213	10.651802158109	9
14	1237	10.933260094772	8
14	1242	10.959401090286	7
14	1248	10.963336967396	8
14	1249	10.982004206708	7
14	1256	11.050459444976	8
14	1274	11.246592497358	9
14	1278	11.275678719845	10
14	1288	11.368910595201	9
14	1308	11.551466822109	10
14	1320	11.662849383106	9
14	1323	11.67280202722	10
14	1358	11.938607403454	9
14	1372	12.051917808822	8
14	1375	12.055476294391	9
14	1393	12.162435877694	10
14	1404	12.238442656513	9
14	1406	12.273919721854	8
14	1432	12.50044225817	7
14	1443	12.622624962682	8
14	1476	12.854335124434	9
14	1477	12.886660725728	8
14	1495	13.014593083495	9
14	1504	13.034249253693	10
14	1513	13.094314573552	9
14	1516	13.097229227592	10
14	1551	13.460583334007	9
14	1596	13.778992452299	8
14	1612	13.914119778735	7
14	1620	14.060843486639	6
14	1636	14.247466608749	5
14	1657	14.342837315135	6
14	1660	14.349113544632	7
14	1664	14.409501214576	8
14	1676	14.542207041426	9
14	1694	14.646067653129	8
14	1698	14.691634049562	9
14	1714	14.807818007279	10
14	1726	14.915732659485	9
14	1761	15.228701396322	10
14	1769	15.258219010487	9
14	1773	15.31080341079	10
14	1777	15.336740271449	9
14	1778	15.346371164533	8
14	1785	15.37722933217	7
14	1803	15.467993171509	8
14	1836	15.741925701918	7
14	1839	15.76449991066	8
14	1846	15.814041482485	9
14	1849	15.816885596044	10
14	1871	15.982304931345	9
14	1879	16.108194462373	8
14	1894	16.195478567477	9
14	1899	16.205879235084	8
14	1902	16.211982540531	9
14	1907	16.279093677407	8
14	1921	16.353117130852	9
14	1942	16.573061131496	10
14	1947	16.651455451854	9
14	1968	16.806165497969	10
14	1995	17.012319119252	9
14	2037	17.304154730469	10
14	2038	17.315692251403	9
14	2060	17.456814317411	8
14	2076	17.660462896507	9
14	2077	17.6791110537	8
14	2080	17.679970992166	9
14	2083	17.688275673947	10
14	2087	17.703384835249	9
14	2095	17.714981216718	8
14	2102	17.792500567367	9
14	2108	17.821798376568	10
14	2112	17.926566041311	9
14	2131	18.092846358641	8
14	2140	18.208711898908	7
14	2154	18.319567352038	8
14	2184	18.580287478001	7
14	2223	18.908720587054	6
14	2227	18.927884098803	5
14	2240	19.024397783815	6
14	2268	19.317738719872	5
14	2272	19.347712417736	4
14	2288	19.469222822501	5
14	2289	19.471833009218	4
14	2293	19.50711352572	3
14	2297	19.535809656134	2
14	2303	19.603480433152	3
14	2322	19.727837871302	2
14	2347	19.980927587408	3
14	2350	19.984702442581	4
14	2351	19.993866724147	3
14	2389	20.272807071167	4
14	2403	20.339497856565	3
14	2409	20.354598338693	4
14	2412	20.483310742645	5
14	2415	20.489022993615	6
14	2431	20.640708951493	5
14	2467	20.876665832055	4
14	2494	21.095031591575	3
14	2497	21.114890062617	4
14	2501	21.140925745354	3
14	2508	21.181161086071	4
14	2511	21.183448356215	5
14	2520	21.208921148206	6
14	2533	21.397096163971	7
14	2548	21.535399264127	6
14	2550	21.568124645729	5
14	2571	21.710032907091	4
14	2603	21.926542342834	5
14	2607	21.967315336625	4
14	2620	22.081723420319	5
14	2635	22.232215846725	6
14	2651	22.328277278442	5
14	2654	22.330490920783	6
14	2667	22.493869674838	5
14	2671	22.50635052608	4
14	2675	22.550967112409	3
14	2681	22.599472285936	4
14	2694	22.667660188554	5
14	2710	22.778374118498	4
14	2732	22.991368401471	5
14	2744	23.132063753292	4
14	2758	23.18782350878	5
14	2765	23.238515690153	6
14	2769	23.281833968192	5
14	2808	23.577088916299	6
14	2821	23.662450793854	5
14	2829	23.840410079525	6
14	2830	23.885828548755	5
14	2848	23.996285070165	6
14	2857	24.055838062891	7
14	2871	24.099182312895	6
14	2882	24.229051380416	7
14	2883	24.237650969584	6
14	2886	24.29551208207	7
14	2898	24.415210662873	8
14	2899	24.424863738209	7
14	2914	24.527757055139	6
14	2918	24.567154147902	7
14	2943	24.787004973057	6
14	2950	24.839986087938	7
14	2969	25.016151774573	8
14	2976	25.039078858372	7
14	2977	25.090672928466	6
14	2983	25.129243278873	7
14	2991	25.180004375542	6
14	3020	25.353114692248	7
14	3039	25.555609205824	6
14	3059	25.752054717995	7
14	3060	25.752649416372	6
14	3100	26.011012864517	5
14	3110	26.094433111133	6
14	3116	26.297777619818	5
14	3129	26.340846357659	6
14	3141	26.380049298496	7
14	3165	26.62758657074	6
14	3172	26.654834534933	7
14	3204	26.908603543784	8
14	3208	26.93862510759	7
14	3233	27.225979509407	6
14	3236	27.247246144415	7
14	3245	27.331323924468	8
14	3251	27.363134601058	9
14	3255	27.391080533707	8
14	3271	27.551341027983	9
14	3275	27.586548353547	8
14	3287	27.62375959945	9
14	3291	27.657120861763	10
14	3298	27.754302787166	9
14	3314	27.890349673571	10
14	3318	27.954782602387	9
14	3343	28.094725375365	8
14	3347	28.122456489688	9
14	3361	28.229361329705	8
14	3377	28.361537110589	9
14	3383	28.403707726018	10
14	3402	28.544036020067	9
14	3423	28.74249841254	10
14	3433	28.77468608199	9
14	3447	28.973003859988	8
14	3457	29.071593213314	9
14	3470	29.128540573435	10
14	3474	29.183605940389	9
14	3478	29.211122777772	8
14	3487	29.263244503955	9
14	3493	29.354406881003	8
14	3494	29.37632207649	7
14	3497	29.38705668612	8
14	3502	29.441183193179	7
14	3515	29.579651849868	6
14	3526	29.65425825846	7
14	3532	29.667695647756	8
14	3555	29.942874103327	7
14	3558	29.944003072026	8
14	3566	29.987392415236	7
14	3576	30.062474071525	6
14	3595	30.169731293237	7
14	3623	30.393364041059	6
14	3650	30.660701673344	7
14	3656	30.676899658078	8
14	3665	30.771851935416	9
14	3669	30.785478973771	8
14	3679	30.856160869938	9
14	3691	30.927682058391	8
14	3703	31.006433164979	9
14	3710	31.058387035962	8
14	3716	31.066672173479	9
14	3741	31.343874223813	8
14	3742	31.352718921543	7
14	3753	31.407668869362	8
14	3769	31.496923927913	9
14	3777	31.579929378793	8
14	3808	31.832494636204	7
14	3817	31.893950498382	8
14	3844	32.099234292232	9
14	3851	32.119161117086	8
14	3855	32.136260866031	7
14	3869	32.220591908253	8
14	3890	32.431280672547	7
14	3907	32.59982130152	6
14	3934	32.841767001134	7
14	3953	32.943978317649	6
14	3972	33.022499578611	5
14	3975	33.049121860413	6
14	4006	33.334029487557	5
14	4007	33.377761604113	4
14	4017	33.426368201981	5
14	4034	33.540162762648	6
14	4037	33.561022371837	7
14	4041	33.589641251964	6
14	4043	33.627575177785	5
14	4064	33.782078263358	6
14	4090	33.954427604095	7
14	4095	33.982149282352	6
14	4102	34.023744664144	7
14	4108	34.064258414132	8
14	4127	34.205854751633	9
14	4130	34.217169656654	10
14	4134	34.286505158695	9
14	4140	34.347286137657	10
14	4175	34.630072528309	9
14	4199	35.004399791141	8
14	4202	35.018708013495	9
14	4205	35.030158313049	10
14	4251	35.346591318886	9
14	4252	35.356811858485	8
14	4256	35.384585632381	9
14	4257	35.40565424484	8
14	4269	35.484281246141	9
14	4272	35.492370620181	10
14	4294	35.691436255949	9
14	4320	35.888874528108	10
14	4321	35.918155341103	9
14	4327	35.947676636555	10
14	4364	36.251796994375	9
14	4376	36.452083976222	10
14	4407	36.611579643161	9
14	4410	36.615202989705	10
14	4425	36.747787988208	9
14	4432	36.826449595947	10
14	4444	36.925861235845	9
14	4448	36.976582803436	10
14	4475	37.310703861534	9
14	4478	37.315154826358	10
14	4482	37.322791615099	9
14	4500	37.441703662362	8
14	4503	37.463775021908	9
14	4523	37.672170540637	10
14	4536	37.72384951996	9
14	4539	37.757665885834	10
14	4581	38.103385327011	9
14	4617	38.410001514996	8
14	4624	38.458016202214	9
14	4630	38.493645443857	10
14	4644	38.6405533025	9
14	4663	38.885354880792	8
14	4671	38.915132029817	7
14	4674	38.918532189703	8
14	4699	39.123572072995	7
14	4734	39.380559679271	6
14	4744	39.41839318502	7
14	4759	39.543718745889	8
14	4772	39.608879401625	9
14	4788	39.749776672303	8
14	4807	39.988485236603	7
14	4818	40.090592358179	6
14	4825	40.142776074788	5
14	4837	40.209781527763	6
14	4843	40.238919281911	7
14	4849	40.269427799803	8
14	4855	40.321942627186	9
14	4856	40.380698443734	8
14	4863	40.425413304482	7
14	4872	40.4499112642	8
14	4888	40.651051371025	7
14	4893	40.694783487581	6
14	4896	40.726644543369	7
14	4925	40.97741573133	8
14	4927	41.001104852308	7
14	4933	41.022923766306	8
14	4939	41.123232422491	9
14	4964	41.209392769632	10
14	4968	41.227823937462	9
14	4982	41.35328984307	10
14	5016	41.62799737255	9
14	5020	41.658757265768	8
14	5028	41.737561540861	9
14	5029	41.78425369912	8
14	5047	41.920310181324	9
14	5051	41.935453504674	10
14	5078	42.165558445717	9
14	5091	42.329676725824	8
14	5109	42.423097291958	9
14	5122	42.52576229641	10
14	5135	42.628627509109	9
14	5138	42.642597413898	10
14	5174	42.949788311139	9
14	5215	43.217921719727	10
14	5225	43.332075801928	9
14	5226	43.403521304705	8
14	5250	43.585132431435	7
14	5253	43.606389709931	8
14	5256	43.633661343532	9
14	5259	43.697853190287	8
14	5263	43.71721469014	9
14	5279	43.848016502864	8
14	5309	44.125838286016	7
14	5322	44.242597682025	8
14	5325	44.245394751987	9
14	5344	44.43137345539	8
14	5358	44.562078432961	7
14	5365	44.609122679658	8
14	5392	44.786571996096	9
14	5408	44.947903802842	8
14	5415	45.070550278036	7
14	5421	45.0763188795	8
14	5423	45.176784925219	7
14	5429	45.205803603116	8
14	5444	45.303707297049	9
14	5469	45.506692150561	8
14	5505	45.862565687408	9
14	5509	45.887014152965	8
14	5513	45.933203130001	7
14	5522	45.96365456271	8
14	5535	46.05388411681	7
14	5545	46.160552245189	8
14	5558	46.340648872111	7
14	5559	46.357650346637	6
14	5565	46.400018323023	7
14	5574	46.551017877735	8
14	5587	46.614514484052	9
14	5588	46.627806725089	8
14	5592	46.641887469906	9
14	5619	46.79501185289	10
14	5630	46.888233936038	9
14	5633	46.907243714012	10
14	5650	47.057364211526	9
14	5657	47.134296465102	10
14	5700	47.445646441888	9
14	5706	47.522424172047	10
14	5731	47.830882165254	9
14	5742	47.880412472544	8
14	5745	47.885053309647	9
14	5768	48.118433115909	8
14	5771	48.128091184604	9
14	5774	48.180188612249	10
14	5786	48.288054763493	9
14	5795	48.375948021565	10
14	5833	48.674961151986	9
14	5846	48.812124801233	10
14	5869	48.993861642374	9
14	5895	49.164601707456	10
14	5912	49.389416179758	9
14	5918	49.396720144148	10
14	5933	49.471377045392	9
14	5936	49.49354169852	10
14	5958	49.763448619332	9
14	6005	50.108883202911	8
14	6018	50.192023361576	7
14	6040	50.491268968119	6
14	6043	50.500085428446	7
14	6063	50.70149398895	8
14	6066	50.70739704114	9
14	6083	50.82510717023	8
14	6126	51.226951270445	7
14	6130	51.238194418993	8
14	6134	51.32286710361	7
14	6170	51.599359477028	8
14	6183	51.676844164305	9
14	6187	51.702697733918	8
14	6192	51.786624087937	7
14	6202	51.83909624702	8
14	6206	51.852369674399	7
14	6227	51.996518793605	8
14	6228	52.01353972193	7
14	6232	52.031425666229	6
14	6248	52.158239072597	7
14	6254	52.182470454539	8
14	6255	52.206747230128	7
14	6270	52.392977254561	6
14	6279	52.46320802656	7
14	6294	52.569281562652	6
14	6303	52.649127759821	7
14	6304	52.660578498113	6
14	6341	52.860655090956	7
14	6342	52.870984029676	6
14	6368	53.165512464096	5
14	6376	53.202365371306	4
14	6390	53.33629142408	5
14	6392	53.34790978618	4
14	6398	53.353540716294	5
14	6411	53.433899903003	4
14	6427	53.617294428641	5
14	6445	53.755846900387	4
14	6451	53.79450500195	5
14	6458	53.888615640761	4
14	6470	53.94811273473	5
14	6491	54.065495335493	6
14	6508	54.221765921937	5
14	6537	54.558454082205	4
14	6538	54.566905682258	3
14	6565	54.69613654354	2
14	6575	54.75722444571	3
14	6582	54.769056162606	2
14	6603	54.990173605864	1
14	6638	55.342683947628	0
14	6658	55.474400618482	1
14	6659	55.477123353129	0
14	6678	55.547327401536	1
14	6685	55.619229371097	2
14	6691	55.671510154358	1
14	6715	55.868648639325	0
14	6718	55.879784670096	1
14	6724	55.945597509579	0
14	6734	56.063625764005	1
14	6737	56.090686348894	2
14	6742	56.131237887497	1
14	6773	56.342429614414	0
14	6791	56.511665679511	1
14	6809	56.595328432745	2
14	6822	56.731792863387	1
14	6829	56.769825063627	0
14	6855	56.934398721742	1
14	6858	56.986514886186	2
14	6861	56.999951867246	3
14	6862	57.0170835024	2
14	6884	57.263752294657	1
14	6894	57.416787212711	2
14	6905	57.554448026727	1
14	6909	57.617343655032	0
14	6918	57.631381751593	1
14	6930	57.754905239954	2
14	6937	57.821361349345	1
14	6944	57.8778691404	0
14	6958	58.033408669891	1
14	6971	58.096333174339	0
14	6984	58.267418341499	1
14	6998	58.381328990094	0
14	7063	58.931160506268	1
14	7064	58.961151677156	0
14	7109	59.319061535749	1
14	7112	59.323190350544	2
14	7123	59.38627386321	3
14	7134	59.550746056965	2
14	7143	59.656655136026	3
14	7184	59.930478412854	2
14	7190	60.044652026066	3
14	7210	60.22549821937	2
14	7218	60.296452350051	1
14	7230	60.332273945081	2
14	7250	60.46309836384	3
14	7254	60.54918926749	4
14	7255	60.563857044765	3
14	7282	60.749466128869	4
14	7291	60.917350130721	3
14	7307	61.049658271197	4
14	7309	61.058275647891	3
14	7350	61.421203078092	2
14	7352	61.45068540386	1
14	7356	61.492200574447	2
14	7371	61.587519542561	3
14	7375	61.649253205113	4
14	7376	61.65509619585	3
14	7386	61.731750242846	2
14	7411	61.834058482143	3
14	7418	61.887613471738	2
14	7421	61.893431809804	3
14	7479	62.283561106799	2
14	7484	62.345140780844	3
14	7500	62.521035575863	4
14	7510	62.586246318015	3
14	7514	62.613484429574	4
14	7526	62.748595658576	3
14	7530	62.773065988963	2
14	7541	62.823677314864	1
14	7548	62.868848797221	2
14	7552	62.903158285372	3
14	7556	62.945930692381	2
14	7563	63.008040125332	1
14	7587	63.192512574509	2
14	7591	63.197765828357	3
14	7600	63.273605444762	4
14	7604	63.278491327042	3
14	7614	63.386003541675	2
14	7618	63.458287786503	3
14	7643	63.597988639364	4
14	7667	63.775366790648	3
14	7670	63.775489771905	4
14	7680	63.825341305972	5
14	7693	63.966149118167	6
14	7694	64.008866810729	5
14	7697	64.028083271305	6
14	7718	64.207184588727	5
14	7733	64.283650882845	6
14	7740	64.355778128651	7
14	7741	64.42515725057	6
14	7749	64.527854018661	5
14	7764	64.702389387206	4
14	7773	64.741076534984	5
14	7777	64.795210402161	6
14	7788	64.852749248622	5
14	7795	64.903262300104	4
14	7806	64.981095640131	3
14	7814	65.068754923621	4
14	7820	65.091884509641	5
14	7829	65.197285043575	6
14	7840	65.256460562802	5
14	7844	65.311157827822	6
14	7863	65.438318667613	7
14	7868	65.484555489825	6
14	7899	65.779280473084	5
14	7903	65.837776805292	6
14	7907	65.864975766649	5
14	7910	65.872490269752	6
14	7929	66.066498482877	7
14	7932	66.072926859538	8
14	7934	66.085405288973	7
14	7951	66.207327174859	8
14	7958	66.240303161034	9
14	7962	66.304360695008	8
14	7969	66.413955614956	9
14	7976	66.493637226437	8
14	7977	66.506118077679	7
14	7998	66.634857566865	6
14	8005	66.681657199635	7
14	8038	66.974887057387	6
14	8044	67.017870046473	7
14	8047	67.033253998773	8
14	8062	67.147260388709	7
14	8064	67.197380342514	6
14	8067	67.221061014437	7
14	8087	67.329967611002	8
14	8109	67.445621525479	7
14	8126	67.698224574645	8
14	8127	67.70703148062	7
14	8150	67.829088309299	6
14	8153	67.882479811082	7
14	8159	67.916648751638	8
14	8184	68.085584543479	7
14	8203	68.219426943454	8
14	8216	68.291567726177	7
14	8229	68.356906849434	8
14	8235	68.371348117334	9
14	8246	68.55012772316	8
14	8272	68.751328695297	9
14	8293	68.911185373102	10
14	8294	68.91197413475	9
14	8298	68.986305442091	10
14	8332	69.2991753465	9
14	8352	69.440087257045	10
14	8358	69.569921371468	9
14	8375	69.803716214807	8
14	8387	69.894100098281	9
14	8417	70.170574621778	8
14	8437	70.277595464315	7
14	8443	70.388697613539	8
14	8455	70.441003351988	9
14	8465	70.490187635172	10
14	8466	70.510014465784	9
14	8484	70.725726815985	8
14	8485	70.732802574169	7
14	8488	70.74249827219	8
14	8502	70.870423995515	9
14	8527	71.073126887948	8
14	8530	71.075247534645	9
14	8541	71.182604590966	8
14	8573	71.483913960313	7
14	8592	71.524992667549	6
14	8608	71.584197028817	7
14	8615	71.697857370967	6
14	8624	71.733468886649	7
14	8641	71.902956083892	6
14	8645	71.922782872409	7
14	8651	71.976943503265	8
14	8657	71.986124616021	9
14	8662	72.00476838221	8
14	8663	72.054495238338	7
14	8667	72.059703782557	6
14	8676	72.143969146712	7
14	8680	72.170697180928	8
14	8684	72.193553541543	7
14	8685	72.237482206937	6
14	8698	72.284113263337	7
14	8719	72.396755440718	8
14	8738	72.509026046115	9
14	8739	72.551370701945	8
14	8759	72.691579195908	9
14	8764	72.700059898234	8
14	8778	72.810726151345	9
14	8787	72.841446545253	10
14	8826	73.092469654203	9
14	8848	73.268080003345	10
14	8874	73.469352051935	9
14	8879	73.477964744393	10
14	8890	73.588657196875	9
14	8893	73.635081860657	10
14	8908	73.822157216956	9
14	8925	73.917090305928	8
14	8934	73.998721009315	9
14	8947	74.07575523439	10
14	8962	74.252304349908	9
14	8978	74.384222632988	10
14	8995	74.468311523367	9
14	9009	74.657882878054	8
14	9012	74.663568016116	9
14	9032	74.850599014156	8
14	9062	75.117923309373	9
14	9069	75.164192685906	8
14	9075	75.233906446765	9
14	9102	75.472774362276	8
14	9127	75.672878141513	9
14	9131	75.697029885403	10
14	9154	75.859975574026	9
14	9166	75.999721798165	8
14	9170	76.013333767054	9
14	9200	76.204006102284	10
14	9216	76.294250232585	9
14	9225	76.397171724834	10
14	9226	76.472421754642	9
14	9231	76.513598736298	8
14	9240	76.537632021103	9
14	9249	76.567221461049	10
14	9260	76.70248217005	9
14	9269	76.725134369771	10
14	9301	77.005069106847	9
14	9314	77.113367516834	8
14	9332	77.232656819559	9
14	9364	77.496834300654	8
14	9378	77.577615873258	7
14	9387	77.710360748227	8
14	9403	77.804531507251	7
14	9417	77.92209638752	8
14	9420	77.939523592777	9
14	9421	77.95951026637	8
14	9424	77.967054714945	9
14	9442	78.064261506404	10
14	9459	78.230649389014	9
14	9476	78.434568808908	8
14	9508	78.687219871767	9
14	9509	78.691458140765	8
14	9526	78.867864652489	9
14	9537	79.021856738203	8
14	9566	79.368077517136	7
14	9572	79.434082698082	8
14	9584	79.501352641731	9
14	9599	79.707332652507	10
14	9601	79.76117519404	9
14	9610	79.813165980466	10
14	9644	80.08498940539	9
14	9658	80.215104736445	8
14	9667	80.265937642586	9
14	9677	80.371628000866	10
14	9702	80.573708092201	9
14	9716	80.739988409531	8
14	9755	81.036060569194	9
14	9756	81.052304513831	8
14	9783	81.300349147957	7
14	9789	81.315899233361	8
14	9798	81.405274152942	9
14	9818	81.568498045765	10
14	9828	81.626030573272	9
14	9852	81.903459258747	8
14	9855	81.909328254592	9
14	9875	82.0834536383	10
14	9902	82.287515689082	9
14	9906	82.329757485267	10
14	9942	82.65594648676	9
14	9945	82.688194599189	10
14	9964	82.841685139097	9
14	9970	82.870743802283	10
14	9985	82.966100553837	9
14	9991	83.015926341596	10
[...]
48	6562	54.693806107313	3711
48	6649	55.41472859069	3927
48	6705	55.823904308017	1326
48	6770	56.341173480619	3202
48	6804	56.581412844154	2540
48	6913	57.629895272794	2506
48	7023	58.611282377296	2815
48	7030	58.660938151255	525
48	7089	59.171322673677	3871
48	7163	59.804863783851	574
48	7195	60.133492812427	2971
48	7259	60.589420459341	1992
48	7287	60.879150475955	1275
48	7390	61.738299195507	3307
48	7459	62.199058783711	3868
48	7463	62.21265642545	50
48	7635	63.577859359793	982
48	7785	64.852035516542	4053
48	7882	65.667701676921	3614
48	8104	67.433640561273	2186
48	8185	68.091824748139	1169
48	8212	68.274158107188	1517
48	8347	69.421071709595	2831
48	8392	69.953480788946	4015
48	8414	70.157646706721	1744
48	8513	70.95575013571	1162
48	8577	71.496453447034	1099
48	8833	73.148271078358	267
48	8929	73.983750513005	3328
48	9039	74.93545785895	1913
48	9103	75.476159522384	2484
48	9298	76.971218814301	2400
48	9375	77.569067110083	3986
48	9404	77.863502204054	3113
48	9482	78.492861143155	3057
48	9494	78.629816496855	1448
48	9520	78.79766676387	676
48	9576	79.45673741995	3272
48	9717	80.740300220394	893
48	9856	81.915406280561	1478
48	9960	82.823797492185	3849
48	10149	84.296524947278	948
48	10256	85.177113454511	803
48	10303	85.644846000939	547
48	10439	86.732866378212	1671
48	10472	86.966927696081	1861
48	10537	87.526143007624	3535
48	10632	88.227594957005	1392
48	10679	88.728147526649	1052
48	10725	89.128461120711	1088
48	10913	90.690938746131	3487
48	10916	90.705126110119	150
48	11125	92.470239565579	2482
48	11306	93.791078129222	3536
48	11352	94.255299734612	4007
48	11444	95.012910550721	3575
48	11472	95.23669257203	2366
48	11501	95.451803457129	837
48	11669	96.868911968073	1023
48	11734	97.263236748259	1620
48	11847	98.238450538037	105
48	12068	100.299061408273	3344
48	12113	100.662188809487	2312
48	12309	102.286485128447	964
48	12383	102.867575069223	3672
48	12492	103.799374587038	3998
48	12613	104.708213979686	807
48	12634	104.866460933703	151
48	12714	105.582210520443	3132
48	12742	105.700083547573	1096
48	12755	105.831110308347	586
48	12857	106.761913673592	1978
48	12929	107.387993651671	3432
48	13047	108.321899704815	3190
48	13158	109.273411875364	2343
48	13414	111.496678382115	2094
48	13462	111.874818923617	3998
48	13496	112.251354421209	223
48	13560	112.706375367314	2560
48	13580	112.866617594753	941
48	13603	113.113252595147	1436
48	13793	114.690103228217	1150
48	13901	115.50115849783	2152
48	13958	115.983095730429	2785
48	14125	117.372824795464	3621
48	14158	117.688257188137	3335
48	14201	118.016647373253	3472
48	14214	118.083800896131	710
48	14426	119.638944528458	3484
48	14500	120.208344505401	3902
48	14506	120.24220501412	358
48	14587	120.881374148569	2323
48	14668	121.49756930718	1860
48	14709	121.790343277045	2581
48	14777	122.359751828523	3653
48	14858	122.967246789806	864
48	14932	123.462483837698	1736
48	15020	124.095563671408	2300
48	15070	124.545930248326	2972
48	15098	124.792695799296	2609
48	15170	125.418778446062	2546
48	15213	125.751992334934	3523
48	15224	125.829833672016	823
48	15288	126.401198942089	2441
48	15335	126.868698154339	3308
48	15392	127.418436165427	3922
48	15483	128.359799087277	2618
48	15549	129.010223178638	1366
48	15677	130.145623798316	2076
48	15789	131.04992511434	3058
48	15827	131.417188676784	3883
48	15876	131.706043407586	3054
48	15898	131.8914249637	1960
48	15933	132.117098633541	2386
48	15955	132.244311997303	1345
48	15983	132.427485376178	230
48	16141	133.601860116708	3758
48	16192	134.045346363746	626
48	16221	134.349326186226	840
48	16280	134.867422035486	2164
48	16342	135.317685764213	3222
48	16377	135.610891286638	3100
48	16416	135.906745117007	3128
48	16455	136.238067357347	3503
48	16469	136.328654305386	807
48	16519	136.708335420746	2387
48	16569	137.071277054238	213
48	16632	137.535814499788	503
48	16769	138.711097856329	3025
48	16797	138.994564528389	2183
48	16849	139.346802602625	2875
48	16900	139.806962416338	1178
48	17038	140.953734001726	309
48	17234	142.521495264795	3471
48	17282	142.838612363515	2353
48	17385	143.498267988114	1258
48	17457	143.985876950527	4033
48	17528	144.529361178914	3150
48	17550	144.632456023896	1090
48	17566	144.762899928369	170
48	17647	145.463467320869	2442
48	17714	146.169547160303	2219
48	17929	147.867066359699	3563
48	17952	148.072310225396	2170
48	17992	148.266771694462	2056
48	18028	148.509186453809	2563
48	18060	148.792744568722	2998
48	18143	149.436531794079	680
48	18205	149.883828105847	1476
48	18240	150.168451477681	2446
48	18274	150.348844750311	167
48	18342	150.940727071161	2263
48	18381	151.243296253818	3199
48	18426	151.551505801276	1122
48	18433	151.718942406754	538
48	18481	152.050910908266	2267
48	18578	152.898488358615	3664
48	18591	153.004893588527	1125
48	18689	153.82052443412	1953
48	18769	154.453702237195	1151
48	18886	155.470371484157	3793
48	18928	155.857610353186	1785
48	18940	155.97315389156	107
48	19016	156.551062345354	2907
48	19127	157.568894399591	1049
48	19177	158.024321621789	740
48	19245	158.708685003134	3717
48	19361	159.570112270998	2204
48	19474	160.604766321037	2535
48	19591	161.592206159643	2479
48	19670	162.305448377706	1109
48	19707	162.476436327469	993
48	19818	163.339218199423	3534
48	19849	163.659663460705	3388
48	19856	163.680187847275	217
48	19976	164.645351058459	2091
48	20057	165.200246033928	3111
48	20074	165.397355810939	2084
48	20088	165.515205514468	1246
48	20128	165.847946491207	3518
48	20230	166.706094175421	3817
48	20291	167.216731498921	2842
48	20327	167.588345852988	3929
48	20339	167.672429630225	889
48	20355	167.872278612139	297
48	20401	168.323589266301	1262
48	20412	168.361545014314	89
48	20440	168.605698431638	1463
48	20472	168.828038541253	862
48	20496	169.049469325714	254
48	20600	169.965716036522	3636
48	20639	170.325562944978	2386
48	20744	171.045373615175	3760
48	20785	171.437497107207	1795
48	20829	171.763333566805	3445
48	20916	172.409441660967	3380
48	20927	172.541627895779	436
48	21294	175.372198366518	686
48	21320	175.551817039131	1522
48	21368	175.906570956335	822
48	21681	178.326420588529	1523
48	21731	178.789778259964	2654
48	21959	180.613758108065	1831
48	22006	180.948820267441	749
48	22033	181.244656990232	823
48	22110	181.822004815751	1783
48	22263	183.00498389583	1838
48	22301	183.305566847529	3178
48	22376	183.839524847944	3581
48	22427	184.208833489211	1026
48	22455	184.486467226226	2667
48	22528	184.949202128019	2747
48	22608	185.599745668135	3086
48	22624	185.662737564243	666
48	22730	186.57417181242	3696
48	22875	187.754629167937	3388
48	22902	187.973605179931	714
48	23041	189.091099434938	3072
48	23088	189.566503762321	1929
48	23151	190.075871534532	1421
48	23183	190.338241720435	1100
48	23243	190.774550539598	2110
48	23271	190.992206073049	1888
48	23492	192.670601178429	486
48	23608	193.676226700928	3922
48	23624	193.813996413394	230
48	23748	194.858202706932	2267
48	24097	197.44694052582	667
48	24389	199.7010860063	249
49	142	1.790033668501	3182
49	157	1.974431280142	702
49	175	2.090533480064	442
49	260	2.731197193029	430
49	323	3.248600149342	1142
49	541	5.281815069851	269
49	588	5.642008497093	955
49	624	5.907835253475	1012
49	695	6.577633579925	1807
49	803	7.543488306424	3677
49	935	8.568970180846	3904
49	1003	9.050619174106	818
49	1106	9.808691192789	1042
49	1142	10.142288011569	1270
49	1231	10.896164287079	2870
49	1269	11.235277273728	1291
49	1292	11.385264504849	571
49	1382	12.131523215206	2841
49	1408	12.315132802865	699
49	1429	12.497429017222	694
49	1555	13.497956798901	3809
49	1652	14.307110681802	1583
49	1684	14.572674763524	1011
49	1786	15.379711321554	1675
49	1859	15.930277409871	2096
49	1960	16.756578381187	2863
49	2010	17.124585580487	1401
49	2026	17.279300955496	589
49	2089	17.708475450871	1624
49	2158	18.369327512314	1377
49	2262	19.298103946507	2968
49	2448	20.758574163597	168
49	2630	22.200736702102	3514
49	2682	22.61366126834	1572
49	2753	23.180250510945	2157
49	2759	23.19469761727	55
49	2812	23.608147532829	1574
49	2911	24.518315231311	3465
49	3024	25.400639415785	3359
49	3052	25.670931641395	1029
49	3113	26.250290222133	1089
49	3331	28.040030948192	1322
49	3363	28.299202023407	927
49	3746	31.376341548989	3908
49	3886	32.397357954184	3887
49	3928	32.782439006413	1466
49	3976	33.067703687669	1086
49	3996	33.196414271293	490
49	4085	33.95423066671	2885
49	4191	34.79978039872	3219
49	4220	35.092137295808	1113
49	4349	36.165688633094	4087
49	4449	37.020169303559	3253
49	4527	37.707063540653	2615
49	4553	37.864142987606	598
49	4625	38.472760175884	2317
49	4727	39.337222483447	3291
49	4736	39.404467196524	256
49	4766	39.578095147086	661
49	4822	40.124721115496	2081
49	4956	41.182511973155	4027
49	5056	42.013089249519	3162
49	5095	42.389764712614	1434
49	5178	42.963708845712	2185
49	5241	43.525307269768	2138
49	5280	43.876765965459	1338
49	5405	44.936920895062	4036
49	5514	45.943752868592	3833
49	5593	46.65586387309	2711
49	5707	47.60517009598	3614
49	5790	48.364037190039	2889
49	5836	48.693956563572	1256
49	5925	49.438901900627	2836
49	5969	49.895430460501	1738
49	6068	50.760680792045	3294
49	6155	51.512718344932	2863
49	6218	51.926693609812	1576
49	6324	52.792994639998	3298
49	6431	53.624097265683	3164
49	6543	54.57734360848	3629
49	6653	55.428409508359	3240
49	6699	55.753338063344	1237
49	6834	56.81988365437	835
49	6878	57.226193855129	1372
49	6975	58.156062153145	3540
49	7065	59.021312484689	3294
49	7169	59.827986366951	3071
49	7256	60.586328111689	2887
49	7360	61.495182436869	3460
49	7365	61.518035132329	87
49	7403	61.772304203651	968
49	7415	61.865553708113	355
49	7442	62.065974474041	763
49	7553	62.919929795185	3251
49	7572	63.113258345281	736
49	7578	63.167894674656	208
49	7725	64.271175162068	3886
49	7789	64.864031870718	2257
49	7865	65.47138893056	1174
49	7992	66.585075929406	4045
49	8032	66.905013665842	1218
49	8131	67.722457209183	3112
49	8198	68.215383568838	365
49	8421	70.210824622724	2397
49	8460	70.485056968241	1044
49	8510	70.949203093268	1767
49	8542	71.211352404404	998
49	8612	71.697149644507	968
49	8723	72.431774594874	995
49	8830	73.131377163943	230
49	8959	74.23332543273	3667
49	9070	75.212313892252	3727
49	9106	75.495214501564	1077
49	9185	76.134301950455	2433
49	9270	76.73556424824	2289
49	9365	77.518334736401	2980
49	9397	77.781797420839	1003
49	9467	78.359681673843	2200
49	9567	79.428504867241	4069
49	9645	80.095698504801	2540
49	9750	81.02110133359	3523
49	9764	81.119341656601	374
49	9825	81.610280596994	1869
49	9926	82.539623545689	3538
49	9993	83.036604003273	1892
49	10053	83.525966895704	1863
49	10166	84.407503056196	3356
49	10172	84.431931799618	93
49	10280	85.457676348701	3905
49	10385	86.32003725898	3283
49	10456	86.853004145046	2029
49	10502	87.191591782375	1289
49	10523	87.415390593084	852
49	10591	87.83882214574	1612
49	10665	88.589808999985	2859
49	10754	89.383086474564	3020
49	10817	89.924721624425	2062
49	10945	90.947314077582	3893
49	11043	91.76896041549	3128
49	11174	92.783672628834	3863
49	11222	93.192919749825	1558
49	11259	93.543853096195	1336
49	11283	93.661268669419	447
49	11402	94.636054334373	3711
49	11487	95.391506657846	2876
49	11527	95.698047986599	1167
49	11631	96.558307499594	3275
49	11663	96.763456409411	781
49	11692	96.991458014687	868
49	11744	97.336087169206	1312
49	11814	97.951008549335	2341
49	11906	98.779484428415	3154
49	11987	99.536512799851	2882
49	12033	99.972027386888	1658
49	12039	99.991727986422	75
49	12151	101.053721638648	4043
49	12267	101.889815082881	3183
49	12338	102.505524486991	2344
49	12386	102.932633484893	1626
49	12429	103.225778405963	1116
49	12514	103.95443791407	2774
49	12594	104.539939732228	2229
49	12623	104.796766817147	963
49	12786	106.213839951671	3159
49	12887	107.057550961058	3212
49	12970	107.645942200481	2240
49	13060	108.409537438428	2907
49	13094	108.677990941415	1022
49	13192	109.522227300122	3214
49	13232	109.8545107456	1265
49	13260	110.070691991156	823
49	13291	110.29711754847	862
49	13294	110.370666453398	280
49	13401	111.292764099634	1299
49	13486	112.133788308563	3165
49	13573	112.812539631183	2584
49	13638	113.330534061603	1972
49	13654	113.497595145653	636
49	13680	113.654411917946	597
49	13869	115.330242361706	938
49	14093	117.146661424554	3212
49	14115	117.327381590948	688
49	14166	117.763946876627	1662
49	14227	118.25488581702	1869
49	14319	118.902116180385	2464
49	14363	119.28457048601	1456
49	14403	119.459249135214	665
49	14411	119.513360115268	206
49	14633	121.222484598921	1137
49	14679	121.628218808725	811
49	14783	122.445738784654	2348
49	14989	123.842814431027	2054
49	15031	124.271236802232	1631
49	15051	124.428316249185	598
49	15161	125.372631653526	3595
49	15195	125.664725875954	1112
49	15240	125.975207324614	1182
49	15295	126.42753308992	1722
49	15369	127.222649287122	3027
49	15408	127.507388619057	1084
49	15495	128.494519993053	3758
49	15582	129.274401059949	2969
49	15674	130.132821850321	3268
49	15684	130.215827043025	316
49	15811	131.287014308367	4078
49	15846	131.5013568313	816
49	15986	132.435690598544	3557
49	16100	133.323530950887	3380
49	16189	134.02723636625	2679
49	16297	134.976017239819	3612
49	16318	135.141239601246	629
49	16391	135.651879141174	1944
49	16483	136.373446433448	2747
49	16552	136.939773001392	2156
49	16562	137.020676796813	308
49	16583	137.161207740157	535
49	16702	138.137048916631	1994
49	16752	138.629826579648	1876
49	16872	139.662663344563	3932
49	16981	140.525812278823	3286
49	17004	140.709159191822	698
49	17076	141.32959673982	2362
49	17158	141.904591571559	2189
49	17247	142.565218342607	2515
49	17303	142.922981230149	1362
49	17382	143.489570472754	2157
49	17396	143.543681452808	206
49	17402	143.574677062742	118
49	17582	144.925492838876	3580
49	17617	145.249633369879	1234
49	17657	145.598727993626	1329
49	17749	146.526757569019	3533
49	17781	146.741362766612	817
49	17857	147.285099313757	2070
49	17926	147.861144844138	2193
49	17998	148.315309332067	1729
49	18021	148.451475388395	169
49	18176	149.667630590082	3288
49	18208	149.890378702149	848
49	18310	150.723798317884	2571
49	18429	151.579329686991	3257
49	18457	151.858290176396	1062
49	18530	152.446944090479	2241
49	18606	153.054247905455	2312
49	18705	153.908203226599	3251
49	18739	154.215795253994	1171
49	18794	154.685720221551	1789
49	18864	155.293549385848	2314
49	18876	155.324019646461	116
49	18912	155.604556183829	1068
49	18964	156.127804107458	1992
49	19043	156.823103933687	2647
49	19112	157.391794573575	2165
49	19194	158.208712767595	3110
49	19214	158.416751098677	792
49	19317	159.370785465455	3632
49	19330	159.437767503871	255
49	19437	160.281215838597	3211
49	19539	161.21476158186	3554
49	19600	161.661833853957	1702
49	19718	162.539167219882	3340
49	19797	163.200844689572	2519
49	19812	163.325089803968	473
49	19859	163.689156883361	1386
49	19884	163.891416371913	770
49	19943	164.353723774317	1760
49	20031	165.044032781997	2628
49	20068	165.375265528833	1261
49	20161	166.103662362279	2773
49	20241	166.846768976711	2829
49	20267	167.011465988817	627
49	20359	167.878817717645	3302
49	20476	168.868838512906	3769
49	20526	169.286491223032	1590
49	20566	169.692848922758	1547
49	20583	169.841260105916	565
49	20610	170.084234166838	925
49	20679	170.611947559695	2009
49	20697	170.694427403078	314
49	20818	171.682872150376	3763
49	20961	172.727791949672	3978
49	20969	172.817626683548	342
49	20978	172.89353966042	289
49	21013	173.170136077881	1053
49	21111	173.995985210356	3144
49	21117	174.017261857853	81
49	21242	174.941351313339	3518
49	21260	175.144661500532	774
49	21348	175.71308946576	2164
49	21402	176.184065131959	1793
49	21416	176.443850371151	989
49	21484	176.848369348254	1540
49	21536	177.27206357557	1613
49	21620	177.930851623995	2508
49	21688	178.420739865747	1865
49	21778	179.106058054878	2609
49	21876	179.941888824451	3182
49	21886	180.066921962828	476
49	21997	180.854157920216	2997
49	22015	181.03461541195	687
49	22125	181.962119638022	3531
49	22128	181.979456165612	66
49	22164	182.228209069064	947
49	22209	182.568635429016	1296
49	22283	183.121828263938	2106
49	22379	183.867036275653	2837
49	22392	183.942161228544	286
49	22537	185.026655657416	3286
49	22588	185.492903179726	1775
49	22666	186.124635738124	2405
49	22683	186.202387437619	296
49	22705	186.446412197183	929
49	22812	187.26727051111	3125
49	22864	187.602443377853	1276
49	22952	188.293656900395	1631
49	23044	189.164686074469	3316
49	23155	190.077743194216	3476
49	23189	190.374040211211	1128
49	23234	190.688987129098	1199
49	23336	191.542154426261	3248
49	23429	192.23167540996	2625
49	23489	192.66902871962	1665
49	23536	193.026528932501	1361
49	23545	193.064354083607	144
49	23638	193.925401620584	3278
49	23650	193.959023977122	128
49	23769	195.006101159414	2029
49	23912	196.192999363007	2364
49	24009	196.911979149246	1279
49	24103	197.480591985028	2056
49	24180	198.093422200295	1906
49	24380	199.665701143983	4085
50	1284	11.323132196793	1664
50	1345	11.77933342913	1887
50	1352	11.857082334839	2441
50	1520	13.122599164208	4063
50	1550	13.458774518918	1211
50	1721	14.840801545181	1234
50	1768	15.252745426442	1193
50	1975	16.844984806212	417
50	1981	16.888246335826	2668
50	4161	34.53500566245	2549
50	4168	34.597660503477	1656
50	4241	35.263086252426	3630
50	4287	35.648216022676	1761
50	4330	35.952456221503	317
50	4379	36.452235028552	3530
50	4400	36.545330357779	650
50	4563	37.972428569065	1497
50	4566	37.973986116048	2270
50	5002	41.51035008663	2300
50	5064	42.043346977703	1159
50	5146	42.707914883098	2559
50	5152	42.738201431056	151
50	5167	42.853520559633	2223
50	5221	43.273395820993	2823
50	5678	47.331050246435	3451
50	5685	47.360044939408	3717
50	5719	47.661928127236	2937
50	5809	48.50189060112	1452
50	5868	48.993312224305	3078
50	5942	49.575727785188	1952
50	8301	69.011418482939	1371
50	8821	73.033964084305	1113
50	8889	73.582806127797	1316
50	9143	75.760683970492	2729
50	9281	76.808506967592	2179
50	9284	76.845511829812	1535
50	9294	76.953219619569	537
50	9458	78.201173342671	1915
50	9637	79.956914787762	1860
50	9683	80.416490061636	3008
50	9695	80.488896974303	361
50	9821	81.575201237474	2688
50	9824	81.581769603483	2856
50	9888	82.170974435327	2514
50	9937	82.595896054618	1041
50	9973	82.879327958142	2740
50	9984	82.94872627333	346
50	10027	83.341448530954	1958
50	10049	83.498171855049	701
50	10069	83.58603171795	1211
50	10121	84.007647850799	2452
50	10220	84.7954387317	2676
50	11179	92.78560509188	859
50	11189	92.91840036028	1636
50	13510	112.281393016502	2451
50	13993	116.259044212736	1413
50	14010	116.42440394956	3384
50	14025	116.543848193548	263
50	14072	116.965788848538	3721
50	15045	124.321511409062	1008
50	15587	129.362853838314	1322
50	15609	129.553284118398	585
50	15616	129.584196281057	1351
50	15622	129.638861334427	299
50	15868	131.659159180103	3080
50	15969	132.293371528727	3162
50	16016	132.619704068642	1627
50	16029	132.723067673525	1379
50	16038	132.756093821034	680
50	16078	133.119034261068	2338
50	16940	140.127819144412	2046
50	16987	140.55593597874	2230
50	18751	154.302710243991	156
50	19495	160.663243584191	3235
50	20696	170.682659580871	298
50	20705	170.739485045894	78
50	21288	175.26282890084	203
50	21363	175.868297616764	277
50	21434	176.497451461991	4078
50	21479	176.81757155219	2367
50	21483	176.846121525984	3223
50	21550	177.37937614544	3129
50	21553	177.383950332756	427
50	21597	177.755281101516	4038
50	21606	177.806127116828	172
50	21612	177.851351907526	1032
50	21637	178.00402256824	1640
50	21706	178.587899493145	471
50	21709	178.591434176379	3856
50	21756	178.924953961623	3312
50	22659	185.953616264929	589
50	22663	186.015687468832	1907
50	22990	188.711963789765	2867
50	22993	188.713526146917	4031
50	23143	190.026204280833	3821
50	23202	190.435647344035	817
50	23386	191.898102474962	2590
50	23716	194.500167470259	3513
50	23719	194.519383064003	1567
50	23761	194.96787946362	1212
50	23768	194.984175523461	196
50	23876	195.841796207664	1618
50	24004	196.881166350159	2860
50	24044	197.08221759069	1986
50	24089	197.436553444827	336
50	24152	197.893459115341	2278
50	24155	197.894248266799	2638
50	24355	199.481359255383	896

